data_LTA
#**************************************************************************
#
# CIF taken from the IZA-SC Database of Zeolite Structures
# Ch. Baerlocher and L.B. McCusker
# Database of Zeolite Structures: http://www.iza-structure.org/databases/ 
#
# The atom coordinates and the cell parameters were optimized with DLS76
# assuming a pure SiO2 composition.
#
#**************************************************************************

_cell_length_a                  11.9190
_cell_length_b                  11.9190
_cell_length_c                  11.9190
_cell_angle_alpha               90.0000
_cell_angle_beta                90.0000
_cell_angle_gamma               90.0000

_symmetry_space_group_name_H-M     'P1'
_symmetry_Int_Tables_number         221
_symmetry_cell_setting             cubic

loop_
_symmetry_equiv_pos_as_xyz
x,y,z

loop_
_atom_site_label
_atom_site_type_symbol
_atom_site_fract_x
_atom_site_fract_y
_atom_site_fract_z
 O1 O 0.0 0.212200001 0.5
 O1 O 0.0 0.212200001 0.5
 O1 O 0.0 0.787800014 0.5
 O1 O 0.0 0.787800014 0.5
 O1 O 0.125 0.0 0.212200001
 O1 O 0.125 0.0 0.212200001
 O1 O 0.125 0.0 0.787800014
 O1 O 0.125 0.0 0.787800014
 O1 O 0.05305000025 0.5 0.0
 O1 O 0.05305000025 0.5 0.0
 O1 O 0.1969500035 0.5 0.0
 O1 O 0.1969500035 0.5 0.0
 O1 O 0.05305000025 0.0 0.5
 O1 O 0.05305000025 0.0 0.5
 O1 O 0.1969500035 0.0 0.5
 O1 O 0.1969500035 0.0 0.5
 O1 O 0.0 0.5 0.787800014
 O1 O 0.0 0.5 0.787800014
 O1 O 0.0 0.5 0.212200001
 O1 O 0.0 0.5 0.212200001
 O1 O 0.125 0.212200001 0.0
 O1 O 0.125 0.212200001 0.0
 O1 O 0.125 0.787800014 0.0
 O1 O 0.125 0.787800014 0.0
 O2 O 0.02757499925 0.110299997 0.338400006
 O2 O 0.222424999 0.889699996 0.661599994
 O2 O 0.222424999 0.889699996 0.338400006
 O2 O 0.02757499925 0.110299997 0.661599994
 O2 O 0.222424999 0.110299997 0.661599994
 O2 O 0.02757499925 0.889699996 0.338400006
 O2 O 0.02757499925 0.889699996 0.661599994
 O2 O 0.222424999 0.110299997 0.338400006
 O2 O 0.0846000015 0.110299997 0.110299997
 O2 O 0.1653999985 0.889699996 0.889699996
 O2 O 0.0846000015 0.889699996 0.889699996
 O2 O 0.1653999985 0.110299997 0.110299997
 O2 O 0.1653999985 0.889699996 0.110299997
 O2 O 0.0846000015 0.110299997 0.889699996
 O2 O 0.1653999985 0.110299997 0.889699996
 O2 O 0.0846000015 0.889699996 0.110299997
 O2 O 0.02757499925 0.338400006 0.110299997
 O2 O 0.222424999 0.661599994 0.889699996
 O2 O 0.222424999 0.338400006 0.889699996
 O2 O 0.02757499925 0.661599994 0.110299997
 O2 O 0.02757499925 0.661599994 0.889699996
 O2 O 0.222424999 0.338400006 0.110299997
 O2 O 0.222424999 0.661599994 0.110299997
 O2 O 0.02757499925 0.338400006 0.889699996
 O3 O 0.0 0.296700001 0.296700001
 O3 O 0.0 0.296700001 0.296700001
 O3 O 0.0 0.703299999 0.703299999
 O3 O 0.0 0.703299999 0.703299999
 O3 O 0.0 0.703299999 0.296700001
 O3 O 0.0 0.703299999 0.296700001
 O3 O 0.0 0.296700001 0.703299999
 O3 O 0.0 0.296700001 0.703299999
 O3 O 0.07417500025 0.0 0.296700001
 O3 O 0.07417500025 0.0 0.296700001
 O3 O 0.17582499975 0.0 0.703299999
 O3 O 0.17582499975 0.0 0.703299999
 O3 O 0.07417500025 0.0 0.703299999
 O3 O 0.07417500025 0.0 0.703299999
 O3 O 0.17582499975 0.0 0.296700001
 O3 O 0.17582499975 0.0 0.296700001
 O3 O 0.07417500025 0.296700001 0.0
 O3 O 0.07417500025 0.296700001 0.0
 O3 O 0.17582499975 0.703299999 0.0
 O3 O 0.17582499975 0.703299999 0.0
 O3 O 0.17582499975 0.296700001 0.0
 O3 O 0.17582499975 0.296700001 0.0
 O3 O 0.07417500025 0.703299999 0.0
 O3 O 0.07417500025 0.703299999 0.0
 O2 O 0.222424999 0.110299997 0.338400006
 O2 O 0.02757498625 0.110299997 0.338400006
 O2 O 0.222424999 0.889699996 0.661599994
 O2 O 0.02757498625 0.889699996 0.661599994
 O2 O 0.222424999 0.889699996 0.338400006
 O2 O 0.02757498625 0.889699996 0.338400006
 O2 O 0.222424999 0.110299997 0.661599994
 O2 O 0.02757498625 0.110299997 0.661599994
 O2 O 0.0846000015 0.889699996 0.110299997
 O2 O 0.0846000015 0.110299945 0.110299997
 O2 O 0.1653999985 0.889699996 0.889699996
 O2 O 0.1653999985 0.110299945 0.889699996
 O2 O 0.0846000015 0.889699996 0.889699996
 O2 O 0.0846000015 0.110299945 0.889699996
 O2 O 0.1653999985 0.889699996 0.110299997
 O2 O 0.1653999985 0.110299945 0.110299997
 O2 O 0.02757499925 0.338400006 0.889699996
 O2 O 0.02757499925 0.338400006 0.110299945
 O2 O 0.222424999 0.661599994 0.889699996
 O2 O 0.222424999 0.661599994 0.110299945
 O2 O 0.222424999 0.338400006 0.889699996
 O2 O 0.222424999 0.338400006 0.110299945
 O2 O 0.02757499925 0.661599994 0.889699996
 O2 O 0.02757499925 0.661599994 0.110299945
 O2 O 0.02757499925 0.889699996 0.661599994
 O2 O 0.02757499925 0.110299945 0.661599994
 O2 O 0.222424999 0.889699996 0.338400006
 O2 O 0.222424999 0.110299945 0.338400006
 O2 O 0.222424999 0.889699996 0.661599994
 O2 O 0.222424999 0.110299945 0.661599994
 O2 O 0.02757499925 0.889699996 0.338400006
 O2 O 0.02757499925 0.110299945 0.338400006
 O2 O 0.222424999 0.338400006 0.889699996
 O2 O 0.02757498625 0.338400006 0.889699996
 O2 O 0.222424999 0.661599994 0.110299997
 O2 O 0.02757498625 0.661599994 0.110299997
 O2 O 0.222424999 0.338400006 0.110299997
 O2 O 0.02757498625 0.338400006 0.110299997
 O2 O 0.222424999 0.661599994 0.889699996
 O2 O 0.02757498625 0.661599994 0.889699996
 O2 O 0.0846000015 0.110299997 0.889699996
 O2 O 0.0846000015 0.110299997 0.110299945
 O2 O 0.1653999985 0.889699996 0.889699996
 O2 O 0.1653999985 0.889699996 0.110299945
 O2 O 0.0846000015 0.889699996 0.889699996
 O2 O 0.0846000015 0.889699996 0.110299945
 O2 O 0.1653999985 0.110299997 0.889699996
 O2 O 0.1653999985 0.110299997 0.110299945
 T1 Si 0.0 0.182300001 0.368400007
 T1 Si 0.0 0.182300001 0.368400007
 T1 Si 0.0 0.817700028 0.631600022
 T1 Si 0.0 0.817700028 0.631600022
 T1 Si 0.0 0.817700028 0.368400007
 T1 Si 0.0 0.817700028 0.368400007
 T1 Si 0.0 0.182300001 0.631600022
 T1 Si 0.0 0.182300001 0.631600022
 T1 Si 0.09210000175 0.0 0.182300001
 T1 Si 0.09210000175 0.0 0.182300001
 T1 Si 0.1579000055 0.0 0.817700028
 T1 Si 0.1579000055 0.0 0.817700028
 T1 Si 0.09210000175 0.0 0.817700028
 T1 Si 0.09210000175 0.0 0.817700028
 T1 Si 0.1579000055 0.0 0.182300001
 T1 Si 0.1579000055 0.0 0.182300001
 T1 Si 0.04557500025 0.368400007 0.0
 T1 Si 0.04557500025 0.368400007 0.0
 T1 Si 0.204425007 0.631600022 0.0
 T1 Si 0.204425007 0.631600022 0.0
 T1 Si 0.204425007 0.368400007 0.0
 T1 Si 0.204425007 0.368400007 0.0
 T1 Si 0.04557500025 0.631600022 0.0
 T1 Si 0.04557500025 0.631600022 0.0
 T1 Si 0.04557500025 0.0 0.631600022
 T1 Si 0.04557500025 0.0 0.631600022
 T1 Si 0.204425007 0.0 0.368400007
 T1 Si 0.204425007 0.0 0.368400007
 T1 Si 0.204425007 0.0 0.631600022
 T1 Si 0.204425007 0.0 0.631600022
 T1 Si 0.04557500025 0.0 0.368400007
 T1 Si 0.04557500025 0.0 0.368400007
 T1 Si 0.0 0.368400007 0.817700028
 T1 Si 0.0 0.368400007 0.817700028
 T1 Si 0.0 0.631600022 0.182300001
 T1 Si 0.0 0.631600022 0.182300001
 T1 Si 0.0 0.368400007 0.182300001
 T1 Si 0.0 0.368400007 0.182300001
 T1 Si 0.0 0.631600022 0.817700028
 T1 Si 0.0 0.631600022 0.817700028
 T1 Si 0.09210000175 0.182300001 0.0
 T1 Si 0.09210000175 0.182300001 0.0
 T1 Si 0.1579000055 0.817700028 0.0
 T1 Si 0.1579000055 0.817700028 0.0
 T1 Si 0.09210000175 0.817700028 0.0
 T1 Si 0.09210000175 0.817700028 0.0
 T1 Si 0.1579000055 0.182300001 0.0
 T1 Si 0.1579000055 0.182300001 0.0
 O1 O 0.25 0.212200001 0.5
 O1 O 0.25 0.212200001 0.5
 O1 O 0.25 0.787800014 0.5
 O1 O 0.25 0.787800014 0.5
 O1 O 0.375 0.0 0.212200001
 O1 O 0.375 0.0 0.212200001
 O1 O 0.375 0.0 0.787800014
 O1 O 0.375 0.0 0.787800014
 O1 O 0.30305000025 0.5 0.0
 O1 O 0.30305000025 0.5 0.0
 O1 O 0.4469500035 0.5 0.0
 O1 O 0.4469500035 0.5 0.0
 O1 O 0.30305000025 0.0 0.5
 O1 O 0.30305000025 0.0 0.5
 O1 O 0.4469500035 0.0 0.5
 O1 O 0.4469500035 0.0 0.5
 O1 O 0.25 0.5 0.787800014
 O1 O 0.25 0.5 0.787800014
 O1 O 0.25 0.5 0.212200001
 O1 O 0.25 0.5 0.212200001
 O1 O 0.375 0.212200001 0.0
 O1 O 0.375 0.212200001 0.0
 O1 O 0.375 0.787800014 0.0
 O1 O 0.375 0.787800014 0.0
 O2 O 0.27757499925 0.110299997 0.338400006
 O2 O 0.472424999 0.889699996 0.661599994
 O2 O 0.472424999 0.889699996 0.338400006
 O2 O 0.27757499925 0.110299997 0.661599994
 O2 O 0.472424999 0.110299997 0.661599994
 O2 O 0.27757499925 0.889699996 0.338400006
 O2 O 0.27757499925 0.889699996 0.661599994
 O2 O 0.472424999 0.110299997 0.338400006
 O2 O 0.3346000015 0.110299997 0.110299997
 O2 O 0.4153999985 0.889699996 0.889699996
 O2 O 0.3346000015 0.889699996 0.889699996
 O2 O 0.4153999985 0.110299997 0.110299997
 O2 O 0.4153999985 0.889699996 0.110299997
 O2 O 0.3346000015 0.110299997 0.889699996
 O2 O 0.4153999985 0.110299997 0.889699996
 O2 O 0.3346000015 0.889699996 0.110299997
 O2 O 0.27757499925 0.338400006 0.110299997
 O2 O 0.472424999 0.661599994 0.889699996
 O2 O 0.472424999 0.338400006 0.889699996
 O2 O 0.27757499925 0.661599994 0.110299997
 O2 O 0.27757499925 0.661599994 0.889699996
 O2 O 0.472424999 0.338400006 0.110299997
 O2 O 0.472424999 0.661599994 0.110299997
 O2 O 0.27757499925 0.338400006 0.889699996
 O3 O 0.25 0.296700001 0.296700001
 O3 O 0.25 0.296700001 0.296700001
 O3 O 0.25 0.703299999 0.703299999
 O3 O 0.25 0.703299999 0.703299999
 O3 O 0.25 0.703299999 0.296700001
 O3 O 0.25 0.703299999 0.296700001
 O3 O 0.25 0.296700001 0.703299999
 O3 O 0.25 0.296700001 0.703299999
 O3 O 0.32417500025 0.0 0.296700001
 O3 O 0.32417500025 0.0 0.296700001
 O3 O 0.42582499975 0.0 0.703299999
 O3 O 0.42582499975 0.0 0.703299999
 O3 O 0.32417500025 0.0 0.703299999
 O3 O 0.32417500025 0.0 0.703299999
 O3 O 0.42582499975 0.0 0.296700001
 O3 O 0.42582499975 0.0 0.296700001
 O3 O 0.32417500025 0.296700001 0.0
 O3 O 0.32417500025 0.296700001 0.0
 O3 O 0.42582499975 0.703299999 0.0
 O3 O 0.42582499975 0.703299999 0.0
 O3 O 0.42582499975 0.296700001 0.0
 O3 O 0.42582499975 0.296700001 0.0
 O3 O 0.32417500025 0.703299999 0.0
 O3 O 0.32417500025 0.703299999 0.0
 O2 O 0.472424999 0.110299997 0.338400006
 O2 O 0.27757498625 0.110299997 0.338400006
 O2 O 0.472424999 0.889699996 0.661599994
 O2 O 0.27757498625 0.889699996 0.661599994
 O2 O 0.472424999 0.889699996 0.338400006
 O2 O 0.27757498625 0.889699996 0.338400006
 O2 O 0.472424999 0.110299997 0.661599994
 O2 O 0.27757498625 0.110299997 0.661599994
 O2 O 0.3346000015 0.889699996 0.110299997
 O2 O 0.3346000015 0.110299945 0.110299997
 O2 O 0.4153999985 0.889699996 0.889699996
 O2 O 0.4153999985 0.110299945 0.889699996
 O2 O 0.3346000015 0.889699996 0.889699996
 O2 O 0.3346000015 0.110299945 0.889699996
 O2 O 0.4153999985 0.889699996 0.110299997
 O2 O 0.4153999985 0.110299945 0.110299997
 O2 O 0.27757499925 0.338400006 0.889699996
 O2 O 0.27757499925 0.338400006 0.110299945
 O2 O 0.472424999 0.661599994 0.889699996
 O2 O 0.472424999 0.661599994 0.110299945
 O2 O 0.472424999 0.338400006 0.889699996
 O2 O 0.472424999 0.338400006 0.110299945
 O2 O 0.27757499925 0.661599994 0.889699996
 O2 O 0.27757499925 0.661599994 0.110299945
 O2 O 0.27757499925 0.889699996 0.661599994
 O2 O 0.27757499925 0.110299945 0.661599994
 O2 O 0.472424999 0.889699996 0.338400006
 O2 O 0.472424999 0.110299945 0.338400006
 O2 O 0.472424999 0.889699996 0.661599994
 O2 O 0.472424999 0.110299945 0.661599994
 O2 O 0.27757499925 0.889699996 0.338400006
 O2 O 0.27757499925 0.110299945 0.338400006
 O2 O 0.472424999 0.338400006 0.889699996
 O2 O 0.27757498625 0.338400006 0.889699996
 O2 O 0.472424999 0.661599994 0.110299997
 O2 O 0.27757498625 0.661599994 0.110299997
 O2 O 0.472424999 0.338400006 0.110299997
 O2 O 0.27757498625 0.338400006 0.110299997
 O2 O 0.472424999 0.661599994 0.889699996
 O2 O 0.27757498625 0.661599994 0.889699996
 O2 O 0.3346000015 0.110299997 0.889699996
 O2 O 0.3346000015 0.110299997 0.110299945
 O2 O 0.4153999985 0.889699996 0.889699996
 O2 O 0.4153999985 0.889699996 0.110299945
 O2 O 0.3346000015 0.889699996 0.889699996
 O2 O 0.3346000015 0.889699996 0.110299945
 O2 O 0.4153999985 0.110299997 0.889699996
 O2 O 0.4153999985 0.110299997 0.110299945
 T1 Si 0.25 0.182300001 0.368400007
 T1 Si 0.25 0.182300001 0.368400007
 T1 Si 0.25 0.817700028 0.631600022
 T1 Si 0.25 0.817700028 0.631600022
 T1 Si 0.25 0.817700028 0.368400007
 T1 Si 0.25 0.817700028 0.368400007
 T1 Si 0.25 0.182300001 0.631600022
 T1 Si 0.25 0.182300001 0.631600022
 T1 Si 0.34210000175 0.0 0.182300001
 T1 Si 0.34210000175 0.0 0.182300001
 T1 Si 0.4079000055 0.0 0.817700028
 T1 Si 0.4079000055 0.0 0.817700028
 T1 Si 0.34210000175 0.0 0.817700028
 T1 Si 0.34210000175 0.0 0.817700028
 T1 Si 0.4079000055 0.0 0.182300001
 T1 Si 0.4079000055 0.0 0.182300001
 T1 Si 0.29557500025 0.368400007 0.0
 T1 Si 0.29557500025 0.368400007 0.0
 T1 Si 0.454425007 0.631600022 0.0
 T1 Si 0.454425007 0.631600022 0.0
 T1 Si 0.454425007 0.368400007 0.0
 T1 Si 0.454425007 0.368400007 0.0
 T1 Si 0.29557500025 0.631600022 0.0
 T1 Si 0.29557500025 0.631600022 0.0
 T1 Si 0.29557500025 0.0 0.631600022
 T1 Si 0.29557500025 0.0 0.631600022
 T1 Si 0.454425007 0.0 0.368400007
 T1 Si 0.454425007 0.0 0.368400007
 T1 Si 0.454425007 0.0 0.631600022
 T1 Si 0.454425007 0.0 0.631600022
 T1 Si 0.29557500025 0.0 0.368400007
 T1 Si 0.29557500025 0.0 0.368400007
 T1 Si 0.25 0.368400007 0.817700028
 T1 Si 0.25 0.368400007 0.817700028
 T1 Si 0.25 0.631600022 0.182300001
 T1 Si 0.25 0.631600022 0.182300001
 T1 Si 0.25 0.368400007 0.182300001
 T1 Si 0.25 0.368400007 0.182300001
 T1 Si 0.25 0.631600022 0.817700028
 T1 Si 0.25 0.631600022 0.817700028
 T1 Si 0.34210000175 0.182300001 0.0
 T1 Si 0.34210000175 0.182300001 0.0
 T1 Si 0.4079000055 0.817700028 0.0
 T1 Si 0.4079000055 0.817700028 0.0
 T1 Si 0.34210000175 0.817700028 0.0
 T1 Si 0.34210000175 0.817700028 0.0
 T1 Si 0.4079000055 0.182300001 0.0
 T1 Si 0.4079000055 0.182300001 0.0
 O1 O 0.5 0.212200001 0.5
 O1 O 0.5 0.212200001 0.5
 O1 O 0.5 0.787800014 0.5
 O1 O 0.5 0.787800014 0.5
 O1 O 0.625 0.0 0.212200001
 O1 O 0.625 0.0 0.212200001
 O1 O 0.625 0.0 0.787800014
 O1 O 0.625 0.0 0.787800014
 O1 O 0.5530500002500001 0.5 0.0
 O1 O 0.5530500002500001 0.5 0.0
 O1 O 0.6969500035 0.5 0.0
 O1 O 0.6969500035 0.5 0.0
 O1 O 0.5530500002500001 0.0 0.5
 O1 O 0.5530500002500001 0.0 0.5
 O1 O 0.6969500035 0.0 0.5
 O1 O 0.6969500035 0.0 0.5
 O1 O 0.5 0.5 0.787800014
 O1 O 0.5 0.5 0.787800014
 O1 O 0.5 0.5 0.212200001
 O1 O 0.5 0.5 0.212200001
 O1 O 0.625 0.212200001 0.0
 O1 O 0.625 0.212200001 0.0
 O1 O 0.625 0.787800014 0.0
 O1 O 0.625 0.787800014 0.0
 O2 O 0.5275749992500001 0.110299997 0.338400006
 O2 O 0.722424999 0.889699996 0.661599994
 O2 O 0.722424999 0.889699996 0.338400006
 O2 O 0.5275749992500001 0.110299997 0.661599994
 O2 O 0.722424999 0.110299997 0.661599994
 O2 O 0.5275749992500001 0.889699996 0.338400006
 O2 O 0.5275749992500001 0.889699996 0.661599994
 O2 O 0.722424999 0.110299997 0.338400006
 O2 O 0.5846000015 0.110299997 0.110299997
 O2 O 0.6653999985 0.889699996 0.889699996
 O2 O 0.5846000015 0.889699996 0.889699996
 O2 O 0.6653999985 0.110299997 0.110299997
 O2 O 0.6653999985 0.889699996 0.110299997
 O2 O 0.5846000015 0.110299997 0.889699996
 O2 O 0.6653999985 0.110299997 0.889699996
 O2 O 0.5846000015 0.889699996 0.110299997
 O2 O 0.5275749992500001 0.338400006 0.110299997
 O2 O 0.722424999 0.661599994 0.889699996
 O2 O 0.722424999 0.338400006 0.889699996
 O2 O 0.5275749992500001 0.661599994 0.110299997
 O2 O 0.5275749992500001 0.661599994 0.889699996
 O2 O 0.722424999 0.338400006 0.110299997
 O2 O 0.722424999 0.661599994 0.110299997
 O2 O 0.5275749992500001 0.338400006 0.889699996
 O3 O 0.5 0.296700001 0.296700001
 O3 O 0.5 0.296700001 0.296700001
 O3 O 0.5 0.703299999 0.703299999
 O3 O 0.5 0.703299999 0.703299999
 O3 O 0.5 0.703299999 0.296700001
 O3 O 0.5 0.703299999 0.296700001
 O3 O 0.5 0.296700001 0.703299999
 O3 O 0.5 0.296700001 0.703299999
 O3 O 0.57417500025 0.0 0.296700001
 O3 O 0.57417500025 0.0 0.296700001
 O3 O 0.67582499975 0.0 0.703299999
 O3 O 0.67582499975 0.0 0.703299999
 O3 O 0.57417500025 0.0 0.703299999
 O3 O 0.57417500025 0.0 0.703299999
 O3 O 0.67582499975 0.0 0.296700001
 O3 O 0.67582499975 0.0 0.296700001
 O3 O 0.57417500025 0.296700001 0.0
 O3 O 0.57417500025 0.296700001 0.0
 O3 O 0.67582499975 0.703299999 0.0
 O3 O 0.67582499975 0.703299999 0.0
 O3 O 0.67582499975 0.296700001 0.0
 O3 O 0.67582499975 0.296700001 0.0
 O3 O 0.57417500025 0.703299999 0.0
 O3 O 0.57417500025 0.703299999 0.0
 O2 O 0.722424999 0.110299997 0.338400006
 O2 O 0.52757498625 0.110299997 0.338400006
 O2 O 0.722424999 0.889699996 0.661599994
 O2 O 0.52757498625 0.889699996 0.661599994
 O2 O 0.722424999 0.889699996 0.338400006
 O2 O 0.52757498625 0.889699996 0.338400006
 O2 O 0.722424999 0.110299997 0.661599994
 O2 O 0.52757498625 0.110299997 0.661599994
 O2 O 0.5846000015 0.889699996 0.110299997
 O2 O 0.5846000015 0.110299945 0.110299997
 O2 O 0.6653999985 0.889699996 0.889699996
 O2 O 0.6653999985 0.110299945 0.889699996
 O2 O 0.5846000015 0.889699996 0.889699996
 O2 O 0.5846000015 0.110299945 0.889699996
 O2 O 0.6653999985 0.889699996 0.110299997
 O2 O 0.6653999985 0.110299945 0.110299997
 O2 O 0.5275749992500001 0.338400006 0.889699996
 O2 O 0.5275749992500001 0.338400006 0.110299945
 O2 O 0.722424999 0.661599994 0.889699996
 O2 O 0.722424999 0.661599994 0.110299945
 O2 O 0.722424999 0.338400006 0.889699996
 O2 O 0.722424999 0.338400006 0.110299945
 O2 O 0.5275749992500001 0.661599994 0.889699996
 O2 O 0.5275749992500001 0.661599994 0.110299945
 O2 O 0.5275749992500001 0.889699996 0.661599994
 O2 O 0.5275749992500001 0.110299945 0.661599994
 O2 O 0.722424999 0.889699996 0.338400006
 O2 O 0.722424999 0.110299945 0.338400006
 O2 O 0.722424999 0.889699996 0.661599994
 O2 O 0.722424999 0.110299945 0.661599994
 O2 O 0.5275749992500001 0.889699996 0.338400006
 O2 O 0.5275749992500001 0.110299945 0.338400006
 O2 O 0.722424999 0.338400006 0.889699996
 O2 O 0.52757498625 0.338400006 0.889699996
 O2 O 0.722424999 0.661599994 0.110299997
 O2 O 0.52757498625 0.661599994 0.110299997
 O2 O 0.722424999 0.338400006 0.110299997
 O2 O 0.52757498625 0.338400006 0.110299997
 O2 O 0.722424999 0.661599994 0.889699996
 O2 O 0.52757498625 0.661599994 0.889699996
 O2 O 0.5846000015 0.110299997 0.889699996
 O2 O 0.5846000015 0.110299997 0.110299945
 O2 O 0.6653999985 0.889699996 0.889699996
 O2 O 0.6653999985 0.889699996 0.110299945
 O2 O 0.5846000015 0.889699996 0.889699996
 O2 O 0.5846000015 0.889699996 0.110299945
 O2 O 0.6653999985 0.110299997 0.889699996
 O2 O 0.6653999985 0.110299997 0.110299945
 T1 Si 0.5 0.182300001 0.368400007
 T1 Si 0.5 0.182300001 0.368400007
 T1 Si 0.5 0.817700028 0.631600022
 T1 Si 0.5 0.817700028 0.631600022
 T1 Si 0.5 0.817700028 0.368400007
 T1 Si 0.5 0.817700028 0.368400007
 T1 Si 0.5 0.182300001 0.631600022
 T1 Si 0.5 0.182300001 0.631600022
 T1 Si 0.59210000175 0.0 0.182300001
 T1 Si 0.59210000175 0.0 0.182300001
 T1 Si 0.6579000054999999 0.0 0.817700028
 T1 Si 0.6579000054999999 0.0 0.817700028
 T1 Si 0.59210000175 0.0 0.817700028
 T1 Si 0.59210000175 0.0 0.817700028
 T1 Si 0.6579000054999999 0.0 0.182300001
 T1 Si 0.6579000054999999 0.0 0.182300001
 T1 Si 0.5455750002499999 0.368400007 0.0
 T1 Si 0.5455750002499999 0.368400007 0.0
 T1 Si 0.704425007 0.631600022 0.0
 T1 Si 0.704425007 0.631600022 0.0
 T1 Si 0.704425007 0.368400007 0.0
 T1 Si 0.704425007 0.368400007 0.0
 T1 Si 0.5455750002499999 0.631600022 0.0
 T1 Si 0.5455750002499999 0.631600022 0.0
 T1 Si 0.5455750002499999 0.0 0.631600022
 T1 Si 0.5455750002499999 0.0 0.631600022
 T1 Si 0.704425007 0.0 0.368400007
 T1 Si 0.704425007 0.0 0.368400007
 T1 Si 0.704425007 0.0 0.631600022
 T1 Si 0.704425007 0.0 0.631600022
 T1 Si 0.5455750002499999 0.0 0.368400007
 T1 Si 0.5455750002499999 0.0 0.368400007
 T1 Si 0.5 0.368400007 0.817700028
 T1 Si 0.5 0.368400007 0.817700028
 T1 Si 0.5 0.631600022 0.182300001
 T1 Si 0.5 0.631600022 0.182300001
 T1 Si 0.5 0.368400007 0.182300001
 T1 Si 0.5 0.368400007 0.182300001
 T1 Si 0.5 0.631600022 0.817700028
 T1 Si 0.5 0.631600022 0.817700028
 T1 Si 0.59210000175 0.182300001 0.0
 T1 Si 0.59210000175 0.182300001 0.0
 T1 Si 0.6579000054999999 0.817700028 0.0
 T1 Si 0.6579000054999999 0.817700028 0.0
 T1 Si 0.59210000175 0.817700028 0.0
 T1 Si 0.59210000175 0.817700028 0.0
 T1 Si 0.6579000054999999 0.182300001 0.0
 T1 Si 0.6579000054999999 0.182300001 0.0
 O1 O 0.75 0.212200001 0.5
 O1 O 0.75 0.212200001 0.5
 O1 O 0.75 0.787800014 0.5
 O1 O 0.75 0.787800014 0.5
 O1 O 0.875 0.0 0.212200001
 O1 O 0.875 0.0 0.212200001
 O1 O 0.875 0.0 0.787800014
 O1 O 0.875 0.0 0.787800014
 O1 O 0.8030500002500001 0.5 0.0
 O1 O 0.8030500002500001 0.5 0.0
 O1 O 0.9469500035 0.5 0.0
 O1 O 0.9469500035 0.5 0.0
 O1 O 0.8030500002500001 0.0 0.5
 O1 O 0.8030500002500001 0.0 0.5
 O1 O 0.9469500035 0.0 0.5
 O1 O 0.9469500035 0.0 0.5
 O1 O 0.75 0.5 0.787800014
 O1 O 0.75 0.5 0.787800014
 O1 O 0.75 0.5 0.212200001
 O1 O 0.75 0.5 0.212200001
 O1 O 0.875 0.212200001 0.0
 O1 O 0.875 0.212200001 0.0
 O1 O 0.875 0.787800014 0.0
 O1 O 0.875 0.787800014 0.0
 O2 O 0.7775749992500001 0.110299997 0.338400006
 O2 O 0.972424999 0.889699996 0.661599994
 O2 O 0.972424999 0.889699996 0.338400006
 O2 O 0.7775749992500001 0.110299997 0.661599994
 O2 O 0.972424999 0.110299997 0.661599994
 O2 O 0.7775749992500001 0.889699996 0.338400006
 O2 O 0.7775749992500001 0.889699996 0.661599994
 O2 O 0.972424999 0.110299997 0.338400006
 O2 O 0.8346000015 0.110299997 0.110299997
 O2 O 0.9153999985 0.889699996 0.889699996
 O2 O 0.8346000015 0.889699996 0.889699996
 O2 O 0.9153999985 0.110299997 0.110299997
 O2 O 0.9153999985 0.889699996 0.110299997
 O2 O 0.8346000015 0.110299997 0.889699996
 O2 O 0.9153999985 0.110299997 0.889699996
 O2 O 0.8346000015 0.889699996 0.110299997
 O2 O 0.7775749992500001 0.338400006 0.110299997
 O2 O 0.972424999 0.661599994 0.889699996
 O2 O 0.972424999 0.338400006 0.889699996
 O2 O 0.7775749992500001 0.661599994 0.110299997
 O2 O 0.7775749992500001 0.661599994 0.889699996
 O2 O 0.972424999 0.338400006 0.110299997
 O2 O 0.972424999 0.661599994 0.110299997
 O2 O 0.7775749992500001 0.338400006 0.889699996
 O3 O 0.75 0.296700001 0.296700001
 O3 O 0.75 0.296700001 0.296700001
 O3 O 0.75 0.703299999 0.703299999
 O3 O 0.75 0.703299999 0.703299999
 O3 O 0.75 0.703299999 0.296700001
 O3 O 0.75 0.703299999 0.296700001
 O3 O 0.75 0.296700001 0.703299999
 O3 O 0.75 0.296700001 0.703299999
 O3 O 0.82417500025 0.0 0.296700001
 O3 O 0.82417500025 0.0 0.296700001
 O3 O 0.92582499975 0.0 0.703299999
 O3 O 0.92582499975 0.0 0.703299999
 O3 O 0.82417500025 0.0 0.703299999
 O3 O 0.82417500025 0.0 0.703299999
 O3 O 0.92582499975 0.0 0.296700001
 O3 O 0.92582499975 0.0 0.296700001
 O3 O 0.82417500025 0.296700001 0.0
 O3 O 0.82417500025 0.296700001 0.0
 O3 O 0.92582499975 0.703299999 0.0
 O3 O 0.92582499975 0.703299999 0.0
 O3 O 0.92582499975 0.296700001 0.0
 O3 O 0.92582499975 0.296700001 0.0
 O3 O 0.82417500025 0.703299999 0.0
 O3 O 0.82417500025 0.703299999 0.0
 O2 O 0.972424999 0.110299997 0.338400006
 O2 O 0.77757498625 0.110299997 0.338400006
 O2 O 0.972424999 0.889699996 0.661599994
 O2 O 0.77757498625 0.889699996 0.661599994
 O2 O 0.972424999 0.889699996 0.338400006
 O2 O 0.77757498625 0.889699996 0.338400006
 O2 O 0.972424999 0.110299997 0.661599994
 O2 O 0.77757498625 0.110299997 0.661599994
 O2 O 0.8346000015 0.889699996 0.110299997
 O2 O 0.8346000015 0.110299945 0.110299997
 O2 O 0.9153999985 0.889699996 0.889699996
 O2 O 0.9153999985 0.110299945 0.889699996
 O2 O 0.8346000015 0.889699996 0.889699996
 O2 O 0.8346000015 0.110299945 0.889699996
 O2 O 0.9153999985 0.889699996 0.110299997
 O2 O 0.9153999985 0.110299945 0.110299997
 O2 O 0.7775749992500001 0.338400006 0.889699996
 O2 O 0.7775749992500001 0.338400006 0.110299945
 O2 O 0.972424999 0.661599994 0.889699996
 O2 O 0.972424999 0.661599994 0.110299945
 O2 O 0.972424999 0.338400006 0.889699996
 O2 O 0.972424999 0.338400006 0.110299945
 O2 O 0.7775749992500001 0.661599994 0.889699996
 O2 O 0.7775749992500001 0.661599994 0.110299945
 O2 O 0.7775749992500001 0.889699996 0.661599994
 O2 O 0.7775749992500001 0.110299945 0.661599994
 O2 O 0.972424999 0.889699996 0.338400006
 O2 O 0.972424999 0.110299945 0.338400006
 O2 O 0.972424999 0.889699996 0.661599994
 O2 O 0.972424999 0.110299945 0.661599994
 O2 O 0.7775749992500001 0.889699996 0.338400006
 O2 O 0.7775749992500001 0.110299945 0.338400006
 O2 O 0.972424999 0.338400006 0.889699996
 O2 O 0.77757498625 0.338400006 0.889699996
 O2 O 0.972424999 0.661599994 0.110299997
 O2 O 0.77757498625 0.661599994 0.110299997
 O2 O 0.972424999 0.338400006 0.110299997
 O2 O 0.77757498625 0.338400006 0.110299997
 O2 O 0.972424999 0.661599994 0.889699996
 O2 O 0.77757498625 0.661599994 0.889699996
 O2 O 0.8346000015 0.110299997 0.889699996
 O2 O 0.8346000015 0.110299997 0.110299945
 O2 O 0.9153999985 0.889699996 0.889699996
 O2 O 0.9153999985 0.889699996 0.110299945
 O2 O 0.8346000015 0.889699996 0.889699996
 O2 O 0.8346000015 0.889699996 0.110299945
 O2 O 0.9153999985 0.110299997 0.889699996
 O2 O 0.9153999985 0.110299997 0.110299945
 T1 Si 0.75 0.182300001 0.368400007
 T1 Si 0.75 0.182300001 0.368400007
 T1 Si 0.75 0.817700028 0.631600022
 T1 Si 0.75 0.817700028 0.631600022
 T1 Si 0.75 0.817700028 0.368400007
 T1 Si 0.75 0.817700028 0.368400007
 T1 Si 0.75 0.182300001 0.631600022
 T1 Si 0.75 0.182300001 0.631600022
 T1 Si 0.84210000175 0.0 0.182300001
 T1 Si 0.84210000175 0.0 0.182300001
 T1 Si 0.9079000054999999 0.0 0.817700028
 T1 Si 0.9079000054999999 0.0 0.817700028
 T1 Si 0.84210000175 0.0 0.817700028
 T1 Si 0.84210000175 0.0 0.817700028
 T1 Si 0.9079000054999999 0.0 0.182300001
 T1 Si 0.9079000054999999 0.0 0.182300001
 T1 Si 0.7955750002499999 0.368400007 0.0
 T1 Si 0.7955750002499999 0.368400007 0.0
 T1 Si 0.954425007 0.631600022 0.0
 T1 Si 0.954425007 0.631600022 0.0
 T1 Si 0.954425007 0.368400007 0.0
 T1 Si 0.954425007 0.368400007 0.0
 T1 Si 0.7955750002499999 0.631600022 0.0
 T1 Si 0.7955750002499999 0.631600022 0.0
 T1 Si 0.7955750002499999 0.0 0.631600022
 T1 Si 0.7955750002499999 0.0 0.631600022
 T1 Si 0.954425007 0.0 0.368400007
 T1 Si 0.954425007 0.0 0.368400007
 T1 Si 0.954425007 0.0 0.631600022
 T1 Si 0.954425007 0.0 0.631600022
 T1 Si 0.7955750002499999 0.0 0.368400007
 T1 Si 0.7955750002499999 0.0 0.368400007
 T1 Si 0.75 0.368400007 0.817700028
 T1 Si 0.75 0.368400007 0.817700028
 T1 Si 0.75 0.631600022 0.182300001
 T1 Si 0.75 0.631600022 0.182300001
 T1 Si 0.75 0.368400007 0.182300001
 T1 Si 0.75 0.368400007 0.182300001
 T1 Si 0.75 0.631600022 0.817700028
 T1 Si 0.75 0.631600022 0.817700028
 T1 Si 0.84210000175 0.182300001 0.0
 T1 Si 0.84210000175 0.182300001 0.0
 T1 Si 0.9079000054999999 0.817700028 0.0
 T1 Si 0.9079000054999999 0.817700028 0.0
 T1 Si 0.84210000175 0.817700028 0.0
 T1 Si 0.84210000175 0.817700028 0.0
 T1 Si 0.9079000054999999 0.182300001 0.0
 T1 Si 0.9079000054999999 0.182300001 0.0