data_LTA
#**************************************************************************
#
# CIF taken from the IZA-SC Database of Zeolite Structures
# Ch. Baerlocher and L.B. McCusker
# Database of Zeolite Structures: http://www.iza-structure.org/databases/ 
#
# The atom coordinates and the cell parameters were optimized with DLS76
# assuming a pure SiO2 composition.
#
#**************************************************************************

_cell_length_a                  11.9190
_cell_length_b                  11.9190
_cell_length_c                  11.9190
_cell_angle_alpha               90.0000
_cell_angle_beta                90.0000
_cell_angle_gamma               90.0000

_symmetry_space_group_name_H-M     'P1'
_symmetry_Int_Tables_number         221
_symmetry_cell_setting             cubic

loop_
_symmetry_equiv_pos_as_xyz
x,y,z

loop_
_atom_site_label
_atom_site_type_symbol
_atom_site_fract_x
_atom_site_fract_y
_atom_site_fract_z
 O1 O 0.0 0.05305000025 0.125
 O1 O 0.0 0.05305000025 0.125
 O1 O 0.0 0.1969500035 0.125
 O1 O 0.0 0.1969500035 0.125
 O1 O 0.125 0.0 0.05305000025
 O1 O 0.125 0.0 0.05305000025
 O1 O 0.125 0.0 0.1969500035
 O1 O 0.125 0.0 0.1969500035
 O1 O 0.05305000025 0.125 0.0
 O1 O 0.05305000025 0.125 0.0
 O1 O 0.1969500035 0.125 0.0
 O1 O 0.1969500035 0.125 0.0
 O1 O 0.05305000025 0.0 0.125
 O1 O 0.05305000025 0.0 0.125
 O1 O 0.1969500035 0.0 0.125
 O1 O 0.1969500035 0.0 0.125
 O1 O 0.0 0.125 0.1969500035
 O1 O 0.0 0.125 0.1969500035
 O1 O 0.0 0.125 0.05305000025
 O1 O 0.0 0.125 0.05305000025
 O1 O 0.125 0.05305000025 0.0
 O1 O 0.125 0.05305000025 0.0
 O1 O 0.125 0.1969500035 0.0
 O1 O 0.125 0.1969500035 0.0
 O2 O 0.02757499925 0.02757499925 0.0846000015
 O2 O 0.222424999 0.222424999 0.1653999985
 O2 O 0.222424999 0.222424999 0.0846000015
 O2 O 0.02757499925 0.02757499925 0.1653999985
 O2 O 0.222424999 0.02757499925 0.1653999985
 O2 O 0.02757499925 0.222424999 0.0846000015
 O2 O 0.02757499925 0.222424999 0.1653999985
 O2 O 0.222424999 0.02757499925 0.0846000015
 O2 O 0.0846000015 0.02757499925 0.02757499925
 O2 O 0.1653999985 0.222424999 0.222424999
 O2 O 0.0846000015 0.222424999 0.222424999
 O2 O 0.1653999985 0.02757499925 0.02757499925
 O2 O 0.1653999985 0.222424999 0.02757499925
 O2 O 0.0846000015 0.02757499925 0.222424999
 O2 O 0.1653999985 0.02757499925 0.222424999
 O2 O 0.0846000015 0.222424999 0.02757499925
 O2 O 0.02757499925 0.0846000015 0.02757499925
 O2 O 0.222424999 0.1653999985 0.222424999
 O2 O 0.222424999 0.0846000015 0.222424999
 O2 O 0.02757499925 0.1653999985 0.02757499925
 O2 O 0.02757499925 0.1653999985 0.222424999
 O2 O 0.222424999 0.0846000015 0.02757499925
 O2 O 0.222424999 0.1653999985 0.02757499925
 O2 O 0.02757499925 0.0846000015 0.222424999
 O3 O 0.0 0.07417500025 0.07417500025
 O3 O 0.0 0.07417500025 0.07417500025
 O3 O 0.0 0.17582499975 0.17582499975
 O3 O 0.0 0.17582499975 0.17582499975
 O3 O 0.0 0.17582499975 0.07417500025
 O3 O 0.0 0.17582499975 0.07417500025
 O3 O 0.0 0.07417500025 0.17582499975
 O3 O 0.0 0.07417500025 0.17582499975
 O3 O 0.07417500025 0.0 0.07417500025
 O3 O 0.07417500025 0.0 0.07417500025
 O3 O 0.17582499975 0.0 0.17582499975
 O3 O 0.17582499975 0.0 0.17582499975
 O3 O 0.07417500025 0.0 0.17582499975
 O3 O 0.07417500025 0.0 0.17582499975
 O3 O 0.17582499975 0.0 0.07417500025
 O3 O 0.17582499975 0.0 0.07417500025
 O3 O 0.07417500025 0.07417500025 0.0
 O3 O 0.07417500025 0.07417500025 0.0
 O3 O 0.17582499975 0.17582499975 0.0
 O3 O 0.17582499975 0.17582499975 0.0
 O3 O 0.17582499975 0.07417500025 0.0
 O3 O 0.17582499975 0.07417500025 0.0
 O3 O 0.07417500025 0.17582499975 0.0
 O3 O 0.07417500025 0.17582499975 0.0
 O2 O 0.222424999 0.02757499925 0.0846000015
 O2 O 0.02757498625 0.02757499925 0.0846000015
 O2 O 0.222424999 0.222424999 0.1653999985
 O2 O 0.02757498625 0.222424999 0.1653999985
 O2 O 0.222424999 0.222424999 0.0846000015
 O2 O 0.02757498625 0.222424999 0.0846000015
 O2 O 0.222424999 0.02757499925 0.1653999985
 O2 O 0.02757498625 0.02757499925 0.1653999985
 O2 O 0.0846000015 0.222424999 0.02757499925
 O2 O 0.0846000015 0.02757498625 0.02757499925
 O2 O 0.1653999985 0.222424999 0.222424999
 O2 O 0.1653999985 0.02757498625 0.222424999
 O2 O 0.0846000015 0.222424999 0.222424999
 O2 O 0.0846000015 0.02757498625 0.222424999
 O2 O 0.1653999985 0.222424999 0.02757499925
 O2 O 0.1653999985 0.02757498625 0.02757499925
 O2 O 0.02757499925 0.0846000015 0.222424999
 O2 O 0.02757499925 0.0846000015 0.02757498625
 O2 O 0.222424999 0.1653999985 0.222424999
 O2 O 0.222424999 0.1653999985 0.02757498625
 O2 O 0.222424999 0.0846000015 0.222424999
 O2 O 0.222424999 0.0846000015 0.02757498625
 O2 O 0.02757499925 0.1653999985 0.222424999
 O2 O 0.02757499925 0.1653999985 0.02757498625
 O2 O 0.02757499925 0.222424999 0.1653999985
 O2 O 0.02757499925 0.02757498625 0.1653999985
 O2 O 0.222424999 0.222424999 0.0846000015
 O2 O 0.222424999 0.02757498625 0.0846000015
 O2 O 0.222424999 0.222424999 0.1653999985
 O2 O 0.222424999 0.02757498625 0.1653999985
 O2 O 0.02757499925 0.222424999 0.0846000015
 O2 O 0.02757499925 0.02757498625 0.0846000015
 O2 O 0.222424999 0.0846000015 0.222424999
 O2 O 0.02757498625 0.0846000015 0.222424999
 O2 O 0.222424999 0.1653999985 0.02757499925
 O2 O 0.02757498625 0.1653999985 0.02757499925
 O2 O 0.222424999 0.0846000015 0.02757499925
 O2 O 0.02757498625 0.0846000015 0.02757499925
 O2 O 0.222424999 0.1653999985 0.222424999
 O2 O 0.02757498625 0.1653999985 0.222424999
 O2 O 0.0846000015 0.02757499925 0.222424999
 O2 O 0.0846000015 0.02757499925 0.02757498625
 O2 O 0.1653999985 0.222424999 0.222424999
 O2 O 0.1653999985 0.222424999 0.02757498625
 O2 O 0.0846000015 0.222424999 0.222424999
 O2 O 0.0846000015 0.222424999 0.02757498625
 O2 O 0.1653999985 0.02757499925 0.222424999
 O2 O 0.1653999985 0.02757499925 0.02757498625
 T1 Si 0.0 0.04557500025 0.09210000175
 T1 Si 0.0 0.04557500025 0.09210000175
 T1 Si 0.0 0.204425007 0.1579000055
 T1 Si 0.0 0.204425007 0.1579000055
 T1 Si 0.0 0.204425007 0.09210000175
 T1 Si 0.0 0.204425007 0.09210000175
 T1 Si 0.0 0.04557500025 0.1579000055
 T1 Si 0.0 0.04557500025 0.1579000055
 T1 Si 0.09210000175 0.0 0.04557500025
 T1 Si 0.09210000175 0.0 0.04557500025
 T1 Si 0.1579000055 0.0 0.204425007
 T1 Si 0.1579000055 0.0 0.204425007
 T1 Si 0.09210000175 0.0 0.204425007
 T1 Si 0.09210000175 0.0 0.204425007
 T1 Si 0.1579000055 0.0 0.04557500025
 T1 Si 0.1579000055 0.0 0.04557500025
 T1 Si 0.04557500025 0.09210000175 0.0
 T1 Si 0.04557500025 0.09210000175 0.0
 T1 Si 0.204425007 0.1579000055 0.0
 T1 Si 0.204425007 0.1579000055 0.0
 T1 Si 0.204425007 0.09210000175 0.0
 T1 Si 0.204425007 0.09210000175 0.0
 T1 Si 0.04557500025 0.1579000055 0.0
 T1 Si 0.04557500025 0.1579000055 0.0
 T1 Si 0.04557500025 0.0 0.1579000055
 T1 Si 0.04557500025 0.0 0.1579000055
 T1 Si 0.204425007 0.0 0.09210000175
 T1 Si 0.204425007 0.0 0.09210000175
 T1 Si 0.204425007 0.0 0.1579000055
 T1 Si 0.204425007 0.0 0.1579000055
 T1 Si 0.04557500025 0.0 0.09210000175
 T1 Si 0.04557500025 0.0 0.09210000175
 T1 Si 0.0 0.09210000175 0.204425007
 T1 Si 0.0 0.09210000175 0.204425007
 T1 Si 0.0 0.1579000055 0.04557500025
 T1 Si 0.0 0.1579000055 0.04557500025
 T1 Si 0.0 0.09210000175 0.04557500025
 T1 Si 0.0 0.09210000175 0.04557500025
 T1 Si 0.0 0.1579000055 0.204425007
 T1 Si 0.0 0.1579000055 0.204425007
 T1 Si 0.09210000175 0.04557500025 0.0
 T1 Si 0.09210000175 0.04557500025 0.0
 T1 Si 0.1579000055 0.204425007 0.0
 T1 Si 0.1579000055 0.204425007 0.0
 T1 Si 0.09210000175 0.204425007 0.0
 T1 Si 0.09210000175 0.204425007 0.0
 T1 Si 0.1579000055 0.04557500025 0.0
 T1 Si 0.1579000055 0.04557500025 0.0
 O1 O 0.25 0.05305000025 0.125
 O1 O 0.25 0.05305000025 0.125
 O1 O 0.25 0.1969500035 0.125
 O1 O 0.25 0.1969500035 0.125
 O1 O 0.375 0.0 0.05305000025
 O1 O 0.375 0.0 0.05305000025
 O1 O 0.375 0.0 0.1969500035
 O1 O 0.375 0.0 0.1969500035
 O1 O 0.30305000025 0.125 0.0
 O1 O 0.30305000025 0.125 0.0
 O1 O 0.4469500035 0.125 0.0
 O1 O 0.4469500035 0.125 0.0
 O1 O 0.30305000025 0.0 0.125
 O1 O 0.30305000025 0.0 0.125
 O1 O 0.4469500035 0.0 0.125
 O1 O 0.4469500035 0.0 0.125
 O1 O 0.25 0.125 0.1969500035
 O1 O 0.25 0.125 0.1969500035
 O1 O 0.25 0.125 0.05305000025
 O1 O 0.25 0.125 0.05305000025
 O1 O 0.375 0.05305000025 0.0
 O1 O 0.375 0.05305000025 0.0
 O1 O 0.375 0.1969500035 0.0
 O1 O 0.375 0.1969500035 0.0
 O2 O 0.27757499925 0.02757499925 0.0846000015
 O2 O 0.472424999 0.222424999 0.1653999985
 O2 O 0.472424999 0.222424999 0.0846000015
 O2 O 0.27757499925 0.02757499925 0.1653999985
 O2 O 0.472424999 0.02757499925 0.1653999985
 O2 O 0.27757499925 0.222424999 0.0846000015
 O2 O 0.27757499925 0.222424999 0.1653999985
 O2 O 0.472424999 0.02757499925 0.0846000015
 O2 O 0.3346000015 0.02757499925 0.02757499925
 O2 O 0.4153999985 0.222424999 0.222424999
 O2 O 0.3346000015 0.222424999 0.222424999
 O2 O 0.4153999985 0.02757499925 0.02757499925
 O2 O 0.4153999985 0.222424999 0.02757499925
 O2 O 0.3346000015 0.02757499925 0.222424999
 O2 O 0.4153999985 0.02757499925 0.222424999
 O2 O 0.3346000015 0.222424999 0.02757499925
 O2 O 0.27757499925 0.0846000015 0.02757499925
 O2 O 0.472424999 0.1653999985 0.222424999
 O2 O 0.472424999 0.0846000015 0.222424999
 O2 O 0.27757499925 0.1653999985 0.02757499925
 O2 O 0.27757499925 0.1653999985 0.222424999
 O2 O 0.472424999 0.0846000015 0.02757499925
 O2 O 0.472424999 0.1653999985 0.02757499925
 O2 O 0.27757499925 0.0846000015 0.222424999
 O3 O 0.25 0.07417500025 0.07417500025
 O3 O 0.25 0.07417500025 0.07417500025
 O3 O 0.25 0.17582499975 0.17582499975
 O3 O 0.25 0.17582499975 0.17582499975
 O3 O 0.25 0.17582499975 0.07417500025
 O3 O 0.25 0.17582499975 0.07417500025
 O3 O 0.25 0.07417500025 0.17582499975
 O3 O 0.25 0.07417500025 0.17582499975
 O3 O 0.32417500025 0.0 0.07417500025
 O3 O 0.32417500025 0.0 0.07417500025
 O3 O 0.42582499975 0.0 0.17582499975
 O3 O 0.42582499975 0.0 0.17582499975
 O3 O 0.32417500025 0.0 0.17582499975
 O3 O 0.32417500025 0.0 0.17582499975
 O3 O 0.42582499975 0.0 0.07417500025
 O3 O 0.42582499975 0.0 0.07417500025
 O3 O 0.32417500025 0.07417500025 0.0
 O3 O 0.32417500025 0.07417500025 0.0
 O3 O 0.42582499975 0.17582499975 0.0
 O3 O 0.42582499975 0.17582499975 0.0
 O3 O 0.42582499975 0.07417500025 0.0
 O3 O 0.42582499975 0.07417500025 0.0
 O3 O 0.32417500025 0.17582499975 0.0
 O3 O 0.32417500025 0.17582499975 0.0
 O2 O 0.472424999 0.02757499925 0.0846000015
 O2 O 0.27757498625 0.02757499925 0.0846000015
 O2 O 0.472424999 0.222424999 0.1653999985
 O2 O 0.27757498625 0.222424999 0.1653999985
 O2 O 0.472424999 0.222424999 0.0846000015
 O2 O 0.27757498625 0.222424999 0.0846000015
 O2 O 0.472424999 0.02757499925 0.1653999985
 O2 O 0.27757498625 0.02757499925 0.1653999985
 O2 O 0.3346000015 0.222424999 0.02757499925
 O2 O 0.3346000015 0.02757498625 0.02757499925
 O2 O 0.4153999985 0.222424999 0.222424999
 O2 O 0.4153999985 0.02757498625 0.222424999
 O2 O 0.3346000015 0.222424999 0.222424999
 O2 O 0.3346000015 0.02757498625 0.222424999
 O2 O 0.4153999985 0.222424999 0.02757499925
 O2 O 0.4153999985 0.02757498625 0.02757499925
 O2 O 0.27757499925 0.0846000015 0.222424999
 O2 O 0.27757499925 0.0846000015 0.02757498625
 O2 O 0.472424999 0.1653999985 0.222424999
 O2 O 0.472424999 0.1653999985 0.02757498625
 O2 O 0.472424999 0.0846000015 0.222424999
 O2 O 0.472424999 0.0846000015 0.02757498625
 O2 O 0.27757499925 0.1653999985 0.222424999
 O2 O 0.27757499925 0.1653999985 0.02757498625
 O2 O 0.27757499925 0.222424999 0.1653999985
 O2 O 0.27757499925 0.02757498625 0.1653999985
 O2 O 0.472424999 0.222424999 0.0846000015
 O2 O 0.472424999 0.02757498625 0.0846000015
 O2 O 0.472424999 0.222424999 0.1653999985
 O2 O 0.472424999 0.02757498625 0.1653999985
 O2 O 0.27757499925 0.222424999 0.0846000015
 O2 O 0.27757499925 0.02757498625 0.0846000015
 O2 O 0.472424999 0.0846000015 0.222424999
 O2 O 0.27757498625 0.0846000015 0.222424999
 O2 O 0.472424999 0.1653999985 0.02757499925
 O2 O 0.27757498625 0.1653999985 0.02757499925
 O2 O 0.472424999 0.0846000015 0.02757499925
 O2 O 0.27757498625 0.0846000015 0.02757499925
 O2 O 0.472424999 0.1653999985 0.222424999
 O2 O 0.27757498625 0.1653999985 0.222424999
 O2 O 0.3346000015 0.02757499925 0.222424999
 O2 O 0.3346000015 0.02757499925 0.02757498625
 O2 O 0.4153999985 0.222424999 0.222424999
 O2 O 0.4153999985 0.222424999 0.02757498625
 O2 O 0.3346000015 0.222424999 0.222424999
 O2 O 0.3346000015 0.222424999 0.02757498625
 O2 O 0.4153999985 0.02757499925 0.222424999
 O2 O 0.4153999985 0.02757499925 0.02757498625
 T1 Si 0.25 0.04557500025 0.09210000175
 T1 Si 0.25 0.04557500025 0.09210000175
 T1 Si 0.25 0.204425007 0.1579000055
 T1 Si 0.25 0.204425007 0.1579000055
 T1 Si 0.25 0.204425007 0.09210000175
 T1 Si 0.25 0.204425007 0.09210000175
 T1 Si 0.25 0.04557500025 0.1579000055
 T1 Si 0.25 0.04557500025 0.1579000055
 T1 Si 0.34210000175 0.0 0.04557500025
 T1 Si 0.34210000175 0.0 0.04557500025
 T1 Si 0.4079000055 0.0 0.204425007
 T1 Si 0.4079000055 0.0 0.204425007
 T1 Si 0.34210000175 0.0 0.204425007
 T1 Si 0.34210000175 0.0 0.204425007
 T1 Si 0.4079000055 0.0 0.04557500025
 T1 Si 0.4079000055 0.0 0.04557500025
 T1 Si 0.29557500025 0.09210000175 0.0
 T1 Si 0.29557500025 0.09210000175 0.0
 T1 Si 0.454425007 0.1579000055 0.0
 T1 Si 0.454425007 0.1579000055 0.0
 T1 Si 0.454425007 0.09210000175 0.0
 T1 Si 0.454425007 0.09210000175 0.0
 T1 Si 0.29557500025 0.1579000055 0.0
 T1 Si 0.29557500025 0.1579000055 0.0
 T1 Si 0.29557500025 0.0 0.1579000055
 T1 Si 0.29557500025 0.0 0.1579000055
 T1 Si 0.454425007 0.0 0.09210000175
 T1 Si 0.454425007 0.0 0.09210000175
 T1 Si 0.454425007 0.0 0.1579000055
 T1 Si 0.454425007 0.0 0.1579000055
 T1 Si 0.29557500025 0.0 0.09210000175
 T1 Si 0.29557500025 0.0 0.09210000175
 T1 Si 0.25 0.09210000175 0.204425007
 T1 Si 0.25 0.09210000175 0.204425007
 T1 Si 0.25 0.1579000055 0.04557500025
 T1 Si 0.25 0.1579000055 0.04557500025
 T1 Si 0.25 0.09210000175 0.04557500025
 T1 Si 0.25 0.09210000175 0.04557500025
 T1 Si 0.25 0.1579000055 0.204425007
 T1 Si 0.25 0.1579000055 0.204425007
 T1 Si 0.34210000175 0.04557500025 0.0
 T1 Si 0.34210000175 0.04557500025 0.0
 T1 Si 0.4079000055 0.204425007 0.0
 T1 Si 0.4079000055 0.204425007 0.0
 T1 Si 0.34210000175 0.204425007 0.0
 T1 Si 0.34210000175 0.204425007 0.0
 T1 Si 0.4079000055 0.04557500025 0.0
 T1 Si 0.4079000055 0.04557500025 0.0
 O1 O 0.5 0.05305000025 0.125
 O1 O 0.5 0.05305000025 0.125
 O1 O 0.5 0.1969500035 0.125
 O1 O 0.5 0.1969500035 0.125
 O1 O 0.625 0.0 0.05305000025
 O1 O 0.625 0.0 0.05305000025
 O1 O 0.625 0.0 0.1969500035
 O1 O 0.625 0.0 0.1969500035
 O1 O 0.5530500002500001 0.125 0.0
 O1 O 0.5530500002500001 0.125 0.0
 O1 O 0.6969500035 0.125 0.0
 O1 O 0.6969500035 0.125 0.0
 O1 O 0.5530500002500001 0.0 0.125
 O1 O 0.5530500002500001 0.0 0.125
 O1 O 0.6969500035 0.0 0.125
 O1 O 0.6969500035 0.0 0.125
 O1 O 0.5 0.125 0.1969500035
 O1 O 0.5 0.125 0.1969500035
 O1 O 0.5 0.125 0.05305000025
 O1 O 0.5 0.125 0.05305000025
 O1 O 0.625 0.05305000025 0.0
 O1 O 0.625 0.05305000025 0.0
 O1 O 0.625 0.1969500035 0.0
 O1 O 0.625 0.1969500035 0.0
 O2 O 0.5275749992500001 0.02757499925 0.0846000015
 O2 O 0.722424999 0.222424999 0.1653999985
 O2 O 0.722424999 0.222424999 0.0846000015
 O2 O 0.5275749992500001 0.02757499925 0.1653999985
 O2 O 0.722424999 0.02757499925 0.1653999985
 O2 O 0.5275749992500001 0.222424999 0.0846000015
 O2 O 0.5275749992500001 0.222424999 0.1653999985
 O2 O 0.722424999 0.02757499925 0.0846000015
 O2 O 0.5846000015 0.02757499925 0.02757499925
 O2 O 0.6653999985 0.222424999 0.222424999
 O2 O 0.5846000015 0.222424999 0.222424999
 O2 O 0.6653999985 0.02757499925 0.02757499925
 O2 O 0.6653999985 0.222424999 0.02757499925
 O2 O 0.5846000015 0.02757499925 0.222424999
 O2 O 0.6653999985 0.02757499925 0.222424999
 O2 O 0.5846000015 0.222424999 0.02757499925
 O2 O 0.5275749992500001 0.0846000015 0.02757499925
 O2 O 0.722424999 0.1653999985 0.222424999
 O2 O 0.722424999 0.0846000015 0.222424999
 O2 O 0.5275749992500001 0.1653999985 0.02757499925
 O2 O 0.5275749992500001 0.1653999985 0.222424999
 O2 O 0.722424999 0.0846000015 0.02757499925
 O2 O 0.722424999 0.1653999985 0.02757499925
 O2 O 0.5275749992500001 0.0846000015 0.222424999
 O3 O 0.5 0.07417500025 0.07417500025
 O3 O 0.5 0.07417500025 0.07417500025
 O3 O 0.5 0.17582499975 0.17582499975
 O3 O 0.5 0.17582499975 0.17582499975
 O3 O 0.5 0.17582499975 0.07417500025
 O3 O 0.5 0.17582499975 0.07417500025
 O3 O 0.5 0.07417500025 0.17582499975
 O3 O 0.5 0.07417500025 0.17582499975
 O3 O 0.57417500025 0.0 0.07417500025
 O3 O 0.57417500025 0.0 0.07417500025
 O3 O 0.67582499975 0.0 0.17582499975
 O3 O 0.67582499975 0.0 0.17582499975
 O3 O 0.57417500025 0.0 0.17582499975
 O3 O 0.57417500025 0.0 0.17582499975
 O3 O 0.67582499975 0.0 0.07417500025
 O3 O 0.67582499975 0.0 0.07417500025
 O3 O 0.57417500025 0.07417500025 0.0
 O3 O 0.57417500025 0.07417500025 0.0
 O3 O 0.67582499975 0.17582499975 0.0
 O3 O 0.67582499975 0.17582499975 0.0
 O3 O 0.67582499975 0.07417500025 0.0
 O3 O 0.67582499975 0.07417500025 0.0
 O3 O 0.57417500025 0.17582499975 0.0
 O3 O 0.57417500025 0.17582499975 0.0
 O2 O 0.722424999 0.02757499925 0.0846000015
 O2 O 0.52757498625 0.02757499925 0.0846000015
 O2 O 0.722424999 0.222424999 0.1653999985
 O2 O 0.52757498625 0.222424999 0.1653999985
 O2 O 0.722424999 0.222424999 0.0846000015
 O2 O 0.52757498625 0.222424999 0.0846000015
 O2 O 0.722424999 0.02757499925 0.1653999985
 O2 O 0.52757498625 0.02757499925 0.1653999985
 O2 O 0.5846000015 0.222424999 0.02757499925
 O2 O 0.5846000015 0.02757498625 0.02757499925
 O2 O 0.6653999985 0.222424999 0.222424999
 O2 O 0.6653999985 0.02757498625 0.222424999
 O2 O 0.5846000015 0.222424999 0.222424999
 O2 O 0.5846000015 0.02757498625 0.222424999
 O2 O 0.6653999985 0.222424999 0.02757499925
 O2 O 0.6653999985 0.02757498625 0.02757499925
 O2 O 0.5275749992500001 0.0846000015 0.222424999
 O2 O 0.5275749992500001 0.0846000015 0.02757498625
 O2 O 0.722424999 0.1653999985 0.222424999
 O2 O 0.722424999 0.1653999985 0.02757498625
 O2 O 0.722424999 0.0846000015 0.222424999
 O2 O 0.722424999 0.0846000015 0.02757498625
 O2 O 0.5275749992500001 0.1653999985 0.222424999
 O2 O 0.5275749992500001 0.1653999985 0.02757498625
 O2 O 0.5275749992500001 0.222424999 0.1653999985
 O2 O 0.5275749992500001 0.02757498625 0.1653999985
 O2 O 0.722424999 0.222424999 0.0846000015
 O2 O 0.722424999 0.02757498625 0.0846000015
 O2 O 0.722424999 0.222424999 0.1653999985
 O2 O 0.722424999 0.02757498625 0.1653999985
 O2 O 0.5275749992500001 0.222424999 0.0846000015
 O2 O 0.5275749992500001 0.02757498625 0.0846000015
 O2 O 0.722424999 0.0846000015 0.222424999
 O2 O 0.52757498625 0.0846000015 0.222424999
 O2 O 0.722424999 0.1653999985 0.02757499925
 O2 O 0.52757498625 0.1653999985 0.02757499925
 O2 O 0.722424999 0.0846000015 0.02757499925
 O2 O 0.52757498625 0.0846000015 0.02757499925
 O2 O 0.722424999 0.1653999985 0.222424999
 O2 O 0.52757498625 0.1653999985 0.222424999
 O2 O 0.5846000015 0.02757499925 0.222424999
 O2 O 0.5846000015 0.02757499925 0.02757498625
 O2 O 0.6653999985 0.222424999 0.222424999
 O2 O 0.6653999985 0.222424999 0.02757498625
 O2 O 0.5846000015 0.222424999 0.222424999
 O2 O 0.5846000015 0.222424999 0.02757498625
 O2 O 0.6653999985 0.02757499925 0.222424999
 O2 O 0.6653999985 0.02757499925 0.02757498625
 T1 Si 0.5 0.04557500025 0.09210000175
 T1 Si 0.5 0.04557500025 0.09210000175
 T1 Si 0.5 0.204425007 0.1579000055
 T1 Si 0.5 0.204425007 0.1579000055
 T1 Si 0.5 0.204425007 0.09210000175
 T1 Si 0.5 0.204425007 0.09210000175
 T1 Si 0.5 0.04557500025 0.1579000055
 T1 Si 0.5 0.04557500025 0.1579000055
 T1 Si 0.59210000175 0.0 0.04557500025
 T1 Si 0.59210000175 0.0 0.04557500025
 T1 Si 0.6579000054999999 0.0 0.204425007
 T1 Si 0.6579000054999999 0.0 0.204425007
 T1 Si 0.59210000175 0.0 0.204425007
 T1 Si 0.59210000175 0.0 0.204425007
 T1 Si 0.6579000054999999 0.0 0.04557500025
 T1 Si 0.6579000054999999 0.0 0.04557500025
 T1 Si 0.5455750002499999 0.09210000175 0.0
 T1 Si 0.5455750002499999 0.09210000175 0.0
 T1 Si 0.704425007 0.1579000055 0.0
 T1 Si 0.704425007 0.1579000055 0.0
 T1 Si 0.704425007 0.09210000175 0.0
 T1 Si 0.704425007 0.09210000175 0.0
 T1 Si 0.5455750002499999 0.1579000055 0.0
 T1 Si 0.5455750002499999 0.1579000055 0.0
 T1 Si 0.5455750002499999 0.0 0.1579000055
 T1 Si 0.5455750002499999 0.0 0.1579000055
 T1 Si 0.704425007 0.0 0.09210000175
 T1 Si 0.704425007 0.0 0.09210000175
 T1 Si 0.704425007 0.0 0.1579000055
 T1 Si 0.704425007 0.0 0.1579000055
 T1 Si 0.5455750002499999 0.0 0.09210000175
 T1 Si 0.5455750002499999 0.0 0.09210000175
 T1 Si 0.5 0.09210000175 0.204425007
 T1 Si 0.5 0.09210000175 0.204425007
 T1 Si 0.5 0.1579000055 0.04557500025
 T1 Si 0.5 0.1579000055 0.04557500025
 T1 Si 0.5 0.09210000175 0.04557500025
 T1 Si 0.5 0.09210000175 0.04557500025
 T1 Si 0.5 0.1579000055 0.204425007
 T1 Si 0.5 0.1579000055 0.204425007
 T1 Si 0.59210000175 0.04557500025 0.0
 T1 Si 0.59210000175 0.04557500025 0.0
 T1 Si 0.6579000054999999 0.204425007 0.0
 T1 Si 0.6579000054999999 0.204425007 0.0
 T1 Si 0.59210000175 0.204425007 0.0
 T1 Si 0.59210000175 0.204425007 0.0
 T1 Si 0.6579000054999999 0.04557500025 0.0
 T1 Si 0.6579000054999999 0.04557500025 0.0
 O1 O 0.75 0.05305000025 0.125
 O1 O 0.75 0.05305000025 0.125
 O1 O 0.75 0.1969500035 0.125
 O1 O 0.75 0.1969500035 0.125
 O1 O 0.875 0.0 0.05305000025
 O1 O 0.875 0.0 0.05305000025
 O1 O 0.875 0.0 0.1969500035
 O1 O 0.875 0.0 0.1969500035
 O1 O 0.8030500002500001 0.125 0.0
 O1 O 0.8030500002500001 0.125 0.0
 O1 O 0.9469500035 0.125 0.0
 O1 O 0.9469500035 0.125 0.0
 O1 O 0.8030500002500001 0.0 0.125
 O1 O 0.8030500002500001 0.0 0.125
 O1 O 0.9469500035 0.0 0.125
 O1 O 0.9469500035 0.0 0.125
 O1 O 0.75 0.125 0.1969500035
 O1 O 0.75 0.125 0.1969500035
 O1 O 0.75 0.125 0.05305000025
 O1 O 0.75 0.125 0.05305000025
 O1 O 0.875 0.05305000025 0.0
 O1 O 0.875 0.05305000025 0.0
 O1 O 0.875 0.1969500035 0.0
 O1 O 0.875 0.1969500035 0.0
 O2 O 0.7775749992500001 0.02757499925 0.0846000015
 O2 O 0.972424999 0.222424999 0.1653999985
 O2 O 0.972424999 0.222424999 0.0846000015
 O2 O 0.7775749992500001 0.02757499925 0.1653999985
 O2 O 0.972424999 0.02757499925 0.1653999985
 O2 O 0.7775749992500001 0.222424999 0.0846000015
 O2 O 0.7775749992500001 0.222424999 0.1653999985
 O2 O 0.972424999 0.02757499925 0.0846000015
 O2 O 0.8346000015 0.02757499925 0.02757499925
 O2 O 0.9153999985 0.222424999 0.222424999
 O2 O 0.8346000015 0.222424999 0.222424999
 O2 O 0.9153999985 0.02757499925 0.02757499925
 O2 O 0.9153999985 0.222424999 0.02757499925
 O2 O 0.8346000015 0.02757499925 0.222424999
 O2 O 0.9153999985 0.02757499925 0.222424999
 O2 O 0.8346000015 0.222424999 0.02757499925
 O2 O 0.7775749992500001 0.0846000015 0.02757499925
 O2 O 0.972424999 0.1653999985 0.222424999
 O2 O 0.972424999 0.0846000015 0.222424999
 O2 O 0.7775749992500001 0.1653999985 0.02757499925
 O2 O 0.7775749992500001 0.1653999985 0.222424999
 O2 O 0.972424999 0.0846000015 0.02757499925
 O2 O 0.972424999 0.1653999985 0.02757499925
 O2 O 0.7775749992500001 0.0846000015 0.222424999
 O3 O 0.75 0.07417500025 0.07417500025
 O3 O 0.75 0.07417500025 0.07417500025
 O3 O 0.75 0.17582499975 0.17582499975
 O3 O 0.75 0.17582499975 0.17582499975
 O3 O 0.75 0.17582499975 0.07417500025
 O3 O 0.75 0.17582499975 0.07417500025
 O3 O 0.75 0.07417500025 0.17582499975
 O3 O 0.75 0.07417500025 0.17582499975
 O3 O 0.82417500025 0.0 0.07417500025
 O3 O 0.82417500025 0.0 0.07417500025
 O3 O 0.92582499975 0.0 0.17582499975
 O3 O 0.92582499975 0.0 0.17582499975
 O3 O 0.82417500025 0.0 0.17582499975
 O3 O 0.82417500025 0.0 0.17582499975
 O3 O 0.92582499975 0.0 0.07417500025
 O3 O 0.92582499975 0.0 0.07417500025
 O3 O 0.82417500025 0.07417500025 0.0
 O3 O 0.82417500025 0.07417500025 0.0
 O3 O 0.92582499975 0.17582499975 0.0
 O3 O 0.92582499975 0.17582499975 0.0
 O3 O 0.92582499975 0.07417500025 0.0
 O3 O 0.92582499975 0.07417500025 0.0
 O3 O 0.82417500025 0.17582499975 0.0
 O3 O 0.82417500025 0.17582499975 0.0
 O2 O 0.972424999 0.02757499925 0.0846000015
 O2 O 0.77757498625 0.02757499925 0.0846000015
 O2 O 0.972424999 0.222424999 0.1653999985
 O2 O 0.77757498625 0.222424999 0.1653999985
 O2 O 0.972424999 0.222424999 0.0846000015
 O2 O 0.77757498625 0.222424999 0.0846000015
 O2 O 0.972424999 0.02757499925 0.1653999985
 O2 O 0.77757498625 0.02757499925 0.1653999985
 O2 O 0.8346000015 0.222424999 0.02757499925
 O2 O 0.8346000015 0.02757498625 0.02757499925
 O2 O 0.9153999985 0.222424999 0.222424999
 O2 O 0.9153999985 0.02757498625 0.222424999
 O2 O 0.8346000015 0.222424999 0.222424999
 O2 O 0.8346000015 0.02757498625 0.222424999
 O2 O 0.9153999985 0.222424999 0.02757499925
 O2 O 0.9153999985 0.02757498625 0.02757499925
 O2 O 0.7775749992500001 0.0846000015 0.222424999
 O2 O 0.7775749992500001 0.0846000015 0.02757498625
 O2 O 0.972424999 0.1653999985 0.222424999
 O2 O 0.972424999 0.1653999985 0.02757498625
 O2 O 0.972424999 0.0846000015 0.222424999
 O2 O 0.972424999 0.0846000015 0.02757498625
 O2 O 0.7775749992500001 0.1653999985 0.222424999
 O2 O 0.7775749992500001 0.1653999985 0.02757498625
 O2 O 0.7775749992500001 0.222424999 0.1653999985
 O2 O 0.7775749992500001 0.02757498625 0.1653999985
 O2 O 0.972424999 0.222424999 0.0846000015
 O2 O 0.972424999 0.02757498625 0.0846000015
 O2 O 0.972424999 0.222424999 0.1653999985
 O2 O 0.972424999 0.02757498625 0.1653999985
 O2 O 0.7775749992500001 0.222424999 0.0846000015
 O2 O 0.7775749992500001 0.02757498625 0.0846000015
 O2 O 0.972424999 0.0846000015 0.222424999
 O2 O 0.77757498625 0.0846000015 0.222424999
 O2 O 0.972424999 0.1653999985 0.02757499925
 O2 O 0.77757498625 0.1653999985 0.02757499925
 O2 O 0.972424999 0.0846000015 0.02757499925
 O2 O 0.77757498625 0.0846000015 0.02757499925
 O2 O 0.972424999 0.1653999985 0.222424999
 O2 O 0.77757498625 0.1653999985 0.222424999
 O2 O 0.8346000015 0.02757499925 0.222424999
 O2 O 0.8346000015 0.02757499925 0.02757498625
 O2 O 0.9153999985 0.222424999 0.222424999
 O2 O 0.9153999985 0.222424999 0.02757498625
 O2 O 0.8346000015 0.222424999 0.222424999
 O2 O 0.8346000015 0.222424999 0.02757498625
 O2 O 0.9153999985 0.02757499925 0.222424999
 O2 O 0.9153999985 0.02757499925 0.02757498625
 T1 Si 0.75 0.04557500025 0.09210000175
 T1 Si 0.75 0.04557500025 0.09210000175
 T1 Si 0.75 0.204425007 0.1579000055
 T1 Si 0.75 0.204425007 0.1579000055
 T1 Si 0.75 0.204425007 0.09210000175
 T1 Si 0.75 0.204425007 0.09210000175
 T1 Si 0.75 0.04557500025 0.1579000055
 T1 Si 0.75 0.04557500025 0.1579000055
 T1 Si 0.84210000175 0.0 0.04557500025
 T1 Si 0.84210000175 0.0 0.04557500025
 T1 Si 0.9079000054999999 0.0 0.204425007
 T1 Si 0.9079000054999999 0.0 0.204425007
 T1 Si 0.84210000175 0.0 0.204425007
 T1 Si 0.84210000175 0.0 0.204425007
 T1 Si 0.9079000054999999 0.0 0.04557500025
 T1 Si 0.9079000054999999 0.0 0.04557500025
 T1 Si 0.7955750002499999 0.09210000175 0.0
 T1 Si 0.7955750002499999 0.09210000175 0.0
 T1 Si 0.954425007 0.1579000055 0.0
 T1 Si 0.954425007 0.1579000055 0.0
 T1 Si 0.954425007 0.09210000175 0.0
 T1 Si 0.954425007 0.09210000175 0.0
 T1 Si 0.7955750002499999 0.1579000055 0.0
 T1 Si 0.7955750002499999 0.1579000055 0.0
 T1 Si 0.7955750002499999 0.0 0.1579000055
 T1 Si 0.7955750002499999 0.0 0.1579000055
 T1 Si 0.954425007 0.0 0.09210000175
 T1 Si 0.954425007 0.0 0.09210000175
 T1 Si 0.954425007 0.0 0.1579000055
 T1 Si 0.954425007 0.0 0.1579000055
 T1 Si 0.7955750002499999 0.0 0.09210000175
 T1 Si 0.7955750002499999 0.0 0.09210000175
 T1 Si 0.75 0.09210000175 0.204425007
 T1 Si 0.75 0.09210000175 0.204425007
 T1 Si 0.75 0.1579000055 0.04557500025
 T1 Si 0.75 0.1579000055 0.04557500025
 T1 Si 0.75 0.09210000175 0.04557500025
 T1 Si 0.75 0.09210000175 0.04557500025
 T1 Si 0.75 0.1579000055 0.204425007
 T1 Si 0.75 0.1579000055 0.204425007
 T1 Si 0.84210000175 0.04557500025 0.0
 T1 Si 0.84210000175 0.04557500025 0.0
 T1 Si 0.9079000054999999 0.204425007 0.0
 T1 Si 0.9079000054999999 0.204425007 0.0
 T1 Si 0.84210000175 0.204425007 0.0
 T1 Si 0.84210000175 0.204425007 0.0
 T1 Si 0.9079000054999999 0.04557500025 0.0
 T1 Si 0.9079000054999999 0.04557500025 0.0
 O1 O 0.0 0.30305000025 0.125
 O1 O 0.0 0.30305000025 0.125
 O1 O 0.0 0.4469500035 0.125
 O1 O 0.0 0.4469500035 0.125
 O1 O 0.125 0.25 0.05305000025
 O1 O 0.125 0.25 0.05305000025
 O1 O 0.125 0.25 0.1969500035
 O1 O 0.125 0.25 0.1969500035
 O1 O 0.05305000025 0.375 0.0
 O1 O 0.05305000025 0.375 0.0
 O1 O 0.1969500035 0.375 0.0
 O1 O 0.1969500035 0.375 0.0
 O1 O 0.05305000025 0.25 0.125
 O1 O 0.05305000025 0.25 0.125
 O1 O 0.1969500035 0.25 0.125
 O1 O 0.1969500035 0.25 0.125
 O1 O 0.0 0.375 0.1969500035
 O1 O 0.0 0.375 0.1969500035
 O1 O 0.0 0.375 0.05305000025
 O1 O 0.0 0.375 0.05305000025
 O1 O 0.125 0.30305000025 0.0
 O1 O 0.125 0.30305000025 0.0
 O1 O 0.125 0.4469500035 0.0
 O1 O 0.125 0.4469500035 0.0
 O2 O 0.02757499925 0.27757499925 0.0846000015
 O2 O 0.222424999 0.472424999 0.1653999985
 O2 O 0.222424999 0.472424999 0.0846000015
 O2 O 0.02757499925 0.27757499925 0.1653999985
 O2 O 0.222424999 0.27757499925 0.1653999985
 O2 O 0.02757499925 0.472424999 0.0846000015
 O2 O 0.02757499925 0.472424999 0.1653999985
 O2 O 0.222424999 0.27757499925 0.0846000015
 O2 O 0.0846000015 0.27757499925 0.02757499925
 O2 O 0.1653999985 0.472424999 0.222424999
 O2 O 0.0846000015 0.472424999 0.222424999
 O2 O 0.1653999985 0.27757499925 0.02757499925
 O2 O 0.1653999985 0.472424999 0.02757499925
 O2 O 0.0846000015 0.27757499925 0.222424999
 O2 O 0.1653999985 0.27757499925 0.222424999
 O2 O 0.0846000015 0.472424999 0.02757499925
 O2 O 0.02757499925 0.3346000015 0.02757499925
 O2 O 0.222424999 0.4153999985 0.222424999
 O2 O 0.222424999 0.3346000015 0.222424999
 O2 O 0.02757499925 0.4153999985 0.02757499925
 O2 O 0.02757499925 0.4153999985 0.222424999
 O2 O 0.222424999 0.3346000015 0.02757499925
 O2 O 0.222424999 0.4153999985 0.02757499925
 O2 O 0.02757499925 0.3346000015 0.222424999
 O3 O 0.0 0.32417500025 0.07417500025
 O3 O 0.0 0.32417500025 0.07417500025
 O3 O 0.0 0.42582499975 0.17582499975
 O3 O 0.0 0.42582499975 0.17582499975
 O3 O 0.0 0.42582499975 0.07417500025
 O3 O 0.0 0.42582499975 0.07417500025
 O3 O 0.0 0.32417500025 0.17582499975
 O3 O 0.0 0.32417500025 0.17582499975
 O3 O 0.07417500025 0.25 0.07417500025
 O3 O 0.07417500025 0.25 0.07417500025
 O3 O 0.17582499975 0.25 0.17582499975
 O3 O 0.17582499975 0.25 0.17582499975
 O3 O 0.07417500025 0.25 0.17582499975
 O3 O 0.07417500025 0.25 0.17582499975
 O3 O 0.17582499975 0.25 0.07417500025
 O3 O 0.17582499975 0.25 0.07417500025
 O3 O 0.07417500025 0.32417500025 0.0
 O3 O 0.07417500025 0.32417500025 0.0
 O3 O 0.17582499975 0.42582499975 0.0
 O3 O 0.17582499975 0.42582499975 0.0
 O3 O 0.17582499975 0.32417500025 0.0
 O3 O 0.17582499975 0.32417500025 0.0
 O3 O 0.07417500025 0.42582499975 0.0
 O3 O 0.07417500025 0.42582499975 0.0
 O2 O 0.222424999 0.27757499925 0.0846000015
 O2 O 0.02757498625 0.27757499925 0.0846000015
 O2 O 0.222424999 0.472424999 0.1653999985
 O2 O 0.02757498625 0.472424999 0.1653999985
 O2 O 0.222424999 0.472424999 0.0846000015
 O2 O 0.02757498625 0.472424999 0.0846000015
 O2 O 0.222424999 0.27757499925 0.1653999985
 O2 O 0.02757498625 0.27757499925 0.1653999985
 O2 O 0.0846000015 0.472424999 0.02757499925
 O2 O 0.0846000015 0.27757498625 0.02757499925
 O2 O 0.1653999985 0.472424999 0.222424999
 O2 O 0.1653999985 0.27757498625 0.222424999
 O2 O 0.0846000015 0.472424999 0.222424999
 O2 O 0.0846000015 0.27757498625 0.222424999
 O2 O 0.1653999985 0.472424999 0.02757499925
 O2 O 0.1653999985 0.27757498625 0.02757499925
 O2 O 0.02757499925 0.3346000015 0.222424999
 O2 O 0.02757499925 0.3346000015 0.02757498625
 O2 O 0.222424999 0.4153999985 0.222424999
 O2 O 0.222424999 0.4153999985 0.02757498625
 O2 O 0.222424999 0.3346000015 0.222424999
 O2 O 0.222424999 0.3346000015 0.02757498625
 O2 O 0.02757499925 0.4153999985 0.222424999
 O2 O 0.02757499925 0.4153999985 0.02757498625
 O2 O 0.02757499925 0.472424999 0.1653999985
 O2 O 0.02757499925 0.27757498625 0.1653999985
 O2 O 0.222424999 0.472424999 0.0846000015
 O2 O 0.222424999 0.27757498625 0.0846000015
 O2 O 0.222424999 0.472424999 0.1653999985
 O2 O 0.222424999 0.27757498625 0.1653999985
 O2 O 0.02757499925 0.472424999 0.0846000015
 O2 O 0.02757499925 0.27757498625 0.0846000015
 O2 O 0.222424999 0.3346000015 0.222424999
 O2 O 0.02757498625 0.3346000015 0.222424999
 O2 O 0.222424999 0.4153999985 0.02757499925
 O2 O 0.02757498625 0.4153999985 0.02757499925
 O2 O 0.222424999 0.3346000015 0.02757499925
 O2 O 0.02757498625 0.3346000015 0.02757499925
 O2 O 0.222424999 0.4153999985 0.222424999
 O2 O 0.02757498625 0.4153999985 0.222424999
 O2 O 0.0846000015 0.27757499925 0.222424999
 O2 O 0.0846000015 0.27757499925 0.02757498625
 O2 O 0.1653999985 0.472424999 0.222424999
 O2 O 0.1653999985 0.472424999 0.02757498625
 O2 O 0.0846000015 0.472424999 0.222424999
 O2 O 0.0846000015 0.472424999 0.02757498625
 O2 O 0.1653999985 0.27757499925 0.222424999
 O2 O 0.1653999985 0.27757499925 0.02757498625
 T1 Si 0.0 0.29557500025 0.09210000175
 T1 Si 0.0 0.29557500025 0.09210000175
 T1 Si 0.0 0.454425007 0.1579000055
 T1 Si 0.0 0.454425007 0.1579000055
 T1 Si 0.0 0.454425007 0.09210000175
 T1 Si 0.0 0.454425007 0.09210000175
 T1 Si 0.0 0.29557500025 0.1579000055
 T1 Si 0.0 0.29557500025 0.1579000055
 T1 Si 0.09210000175 0.25 0.04557500025
 T1 Si 0.09210000175 0.25 0.04557500025
 T1 Si 0.1579000055 0.25 0.204425007
 T1 Si 0.1579000055 0.25 0.204425007
 T1 Si 0.09210000175 0.25 0.204425007
 T1 Si 0.09210000175 0.25 0.204425007
 T1 Si 0.1579000055 0.25 0.04557500025
 T1 Si 0.1579000055 0.25 0.04557500025
 T1 Si 0.04557500025 0.34210000175 0.0
 T1 Si 0.04557500025 0.34210000175 0.0
 T1 Si 0.204425007 0.4079000055 0.0
 T1 Si 0.204425007 0.4079000055 0.0
 T1 Si 0.204425007 0.34210000175 0.0
 T1 Si 0.204425007 0.34210000175 0.0
 T1 Si 0.04557500025 0.4079000055 0.0
 T1 Si 0.04557500025 0.4079000055 0.0
 T1 Si 0.04557500025 0.25 0.1579000055
 T1 Si 0.04557500025 0.25 0.1579000055
 T1 Si 0.204425007 0.25 0.09210000175
 T1 Si 0.204425007 0.25 0.09210000175
 T1 Si 0.204425007 0.25 0.1579000055
 T1 Si 0.204425007 0.25 0.1579000055
 T1 Si 0.04557500025 0.25 0.09210000175
 T1 Si 0.04557500025 0.25 0.09210000175
 T1 Si 0.0 0.34210000175 0.204425007
 T1 Si 0.0 0.34210000175 0.204425007
 T1 Si 0.0 0.4079000055 0.04557500025
 T1 Si 0.0 0.4079000055 0.04557500025
 T1 Si 0.0 0.34210000175 0.04557500025
 T1 Si 0.0 0.34210000175 0.04557500025
 T1 Si 0.0 0.4079000055 0.204425007
 T1 Si 0.0 0.4079000055 0.204425007
 T1 Si 0.09210000175 0.29557500025 0.0
 T1 Si 0.09210000175 0.29557500025 0.0
 T1 Si 0.1579000055 0.454425007 0.0
 T1 Si 0.1579000055 0.454425007 0.0
 T1 Si 0.09210000175 0.454425007 0.0
 T1 Si 0.09210000175 0.454425007 0.0
 T1 Si 0.1579000055 0.29557500025 0.0
 T1 Si 0.1579000055 0.29557500025 0.0
 O1 O 0.25 0.30305000025 0.125
 O1 O 0.25 0.30305000025 0.125
 O1 O 0.25 0.4469500035 0.125
 O1 O 0.25 0.4469500035 0.125
 O1 O 0.375 0.25 0.05305000025
 O1 O 0.375 0.25 0.05305000025
 O1 O 0.375 0.25 0.1969500035
 O1 O 0.375 0.25 0.1969500035
 O1 O 0.30305000025 0.375 0.0
 O1 O 0.30305000025 0.375 0.0
 O1 O 0.4469500035 0.375 0.0
 O1 O 0.4469500035 0.375 0.0
 O1 O 0.30305000025 0.25 0.125
 O1 O 0.30305000025 0.25 0.125
 O1 O 0.4469500035 0.25 0.125
 O1 O 0.4469500035 0.25 0.125
 O1 O 0.25 0.375 0.1969500035
 O1 O 0.25 0.375 0.1969500035
 O1 O 0.25 0.375 0.05305000025
 O1 O 0.25 0.375 0.05305000025
 O1 O 0.375 0.30305000025 0.0
 O1 O 0.375 0.30305000025 0.0
 O1 O 0.375 0.4469500035 0.0
 O1 O 0.375 0.4469500035 0.0
 O2 O 0.27757499925 0.27757499925 0.0846000015
 O2 O 0.472424999 0.472424999 0.1653999985
 O2 O 0.472424999 0.472424999 0.0846000015
 O2 O 0.27757499925 0.27757499925 0.1653999985
 O2 O 0.472424999 0.27757499925 0.1653999985
 O2 O 0.27757499925 0.472424999 0.0846000015
 O2 O 0.27757499925 0.472424999 0.1653999985
 O2 O 0.472424999 0.27757499925 0.0846000015
 O2 O 0.3346000015 0.27757499925 0.02757499925
 O2 O 0.4153999985 0.472424999 0.222424999
 O2 O 0.3346000015 0.472424999 0.222424999
 O2 O 0.4153999985 0.27757499925 0.02757499925
 O2 O 0.4153999985 0.472424999 0.02757499925
 O2 O 0.3346000015 0.27757499925 0.222424999
 O2 O 0.4153999985 0.27757499925 0.222424999
 O2 O 0.3346000015 0.472424999 0.02757499925
 O2 O 0.27757499925 0.3346000015 0.02757499925
 O2 O 0.472424999 0.4153999985 0.222424999
 O2 O 0.472424999 0.3346000015 0.222424999
 O2 O 0.27757499925 0.4153999985 0.02757499925
 O2 O 0.27757499925 0.4153999985 0.222424999
 O2 O 0.472424999 0.3346000015 0.02757499925
 O2 O 0.472424999 0.4153999985 0.02757499925
 O2 O 0.27757499925 0.3346000015 0.222424999
 O3 O 0.25 0.32417500025 0.07417500025
 O3 O 0.25 0.32417500025 0.07417500025
 O3 O 0.25 0.42582499975 0.17582499975
 O3 O 0.25 0.42582499975 0.17582499975
 O3 O 0.25 0.42582499975 0.07417500025
 O3 O 0.25 0.42582499975 0.07417500025
 O3 O 0.25 0.32417500025 0.17582499975
 O3 O 0.25 0.32417500025 0.17582499975
 O3 O 0.32417500025 0.25 0.07417500025
 O3 O 0.32417500025 0.25 0.07417500025
 O3 O 0.42582499975 0.25 0.17582499975
 O3 O 0.42582499975 0.25 0.17582499975
 O3 O 0.32417500025 0.25 0.17582499975
 O3 O 0.32417500025 0.25 0.17582499975
 O3 O 0.42582499975 0.25 0.07417500025
 O3 O 0.42582499975 0.25 0.07417500025
 O3 O 0.32417500025 0.32417500025 0.0
 O3 O 0.32417500025 0.32417500025 0.0
 O3 O 0.42582499975 0.42582499975 0.0
 O3 O 0.42582499975 0.42582499975 0.0
 O3 O 0.42582499975 0.32417500025 0.0
 O3 O 0.42582499975 0.32417500025 0.0
 O3 O 0.32417500025 0.42582499975 0.0
 O3 O 0.32417500025 0.42582499975 0.0
 O2 O 0.472424999 0.27757499925 0.0846000015
 O2 O 0.27757498625 0.27757499925 0.0846000015
 O2 O 0.472424999 0.472424999 0.1653999985
 O2 O 0.27757498625 0.472424999 0.1653999985
 O2 O 0.472424999 0.472424999 0.0846000015
 O2 O 0.27757498625 0.472424999 0.0846000015
 O2 O 0.472424999 0.27757499925 0.1653999985
 O2 O 0.27757498625 0.27757499925 0.1653999985
 O2 O 0.3346000015 0.472424999 0.02757499925
 O2 O 0.3346000015 0.27757498625 0.02757499925
 O2 O 0.4153999985 0.472424999 0.222424999
 O2 O 0.4153999985 0.27757498625 0.222424999
 O2 O 0.3346000015 0.472424999 0.222424999
 O2 O 0.3346000015 0.27757498625 0.222424999
 O2 O 0.4153999985 0.472424999 0.02757499925
 O2 O 0.4153999985 0.27757498625 0.02757499925
 O2 O 0.27757499925 0.3346000015 0.222424999
 O2 O 0.27757499925 0.3346000015 0.02757498625
 O2 O 0.472424999 0.4153999985 0.222424999
 O2 O 0.472424999 0.4153999985 0.02757498625
 O2 O 0.472424999 0.3346000015 0.222424999
 O2 O 0.472424999 0.3346000015 0.02757498625
 O2 O 0.27757499925 0.4153999985 0.222424999
 O2 O 0.27757499925 0.4153999985 0.02757498625
 O2 O 0.27757499925 0.472424999 0.1653999985
 O2 O 0.27757499925 0.27757498625 0.1653999985
 O2 O 0.472424999 0.472424999 0.0846000015
 O2 O 0.472424999 0.27757498625 0.0846000015
 O2 O 0.472424999 0.472424999 0.1653999985
 O2 O 0.472424999 0.27757498625 0.1653999985
 O2 O 0.27757499925 0.472424999 0.0846000015
 O2 O 0.27757499925 0.27757498625 0.0846000015
 O2 O 0.472424999 0.3346000015 0.222424999
 O2 O 0.27757498625 0.3346000015 0.222424999
 O2 O 0.472424999 0.4153999985 0.02757499925
 O2 O 0.27757498625 0.4153999985 0.02757499925
 O2 O 0.472424999 0.3346000015 0.02757499925
 O2 O 0.27757498625 0.3346000015 0.02757499925
 O2 O 0.472424999 0.4153999985 0.222424999
 O2 O 0.27757498625 0.4153999985 0.222424999
 O2 O 0.3346000015 0.27757499925 0.222424999
 O2 O 0.3346000015 0.27757499925 0.02757498625
 O2 O 0.4153999985 0.472424999 0.222424999
 O2 O 0.4153999985 0.472424999 0.02757498625
 O2 O 0.3346000015 0.472424999 0.222424999
 O2 O 0.3346000015 0.472424999 0.02757498625
 O2 O 0.4153999985 0.27757499925 0.222424999
 O2 O 0.4153999985 0.27757499925 0.02757498625
 T1 Si 0.25 0.29557500025 0.09210000175
 T1 Si 0.25 0.29557500025 0.09210000175
 T1 Si 0.25 0.454425007 0.1579000055
 T1 Si 0.25 0.454425007 0.1579000055
 T1 Si 0.25 0.454425007 0.09210000175
 T1 Si 0.25 0.454425007 0.09210000175
 T1 Si 0.25 0.29557500025 0.1579000055
 T1 Si 0.25 0.29557500025 0.1579000055
 T1 Si 0.34210000175 0.25 0.04557500025
 T1 Si 0.34210000175 0.25 0.04557500025
 T1 Si 0.4079000055 0.25 0.204425007
 T1 Si 0.4079000055 0.25 0.204425007
 T1 Si 0.34210000175 0.25 0.204425007
 T1 Si 0.34210000175 0.25 0.204425007
 T1 Si 0.4079000055 0.25 0.04557500025
 T1 Si 0.4079000055 0.25 0.04557500025
 T1 Si 0.29557500025 0.34210000175 0.0
 T1 Si 0.29557500025 0.34210000175 0.0
 T1 Si 0.454425007 0.4079000055 0.0
 T1 Si 0.454425007 0.4079000055 0.0
 T1 Si 0.454425007 0.34210000175 0.0
 T1 Si 0.454425007 0.34210000175 0.0
 T1 Si 0.29557500025 0.4079000055 0.0
 T1 Si 0.29557500025 0.4079000055 0.0
 T1 Si 0.29557500025 0.25 0.1579000055
 T1 Si 0.29557500025 0.25 0.1579000055
 T1 Si 0.454425007 0.25 0.09210000175
 T1 Si 0.454425007 0.25 0.09210000175
 T1 Si 0.454425007 0.25 0.1579000055
 T1 Si 0.454425007 0.25 0.1579000055
 T1 Si 0.29557500025 0.25 0.09210000175
 T1 Si 0.29557500025 0.25 0.09210000175
 T1 Si 0.25 0.34210000175 0.204425007
 T1 Si 0.25 0.34210000175 0.204425007
 T1 Si 0.25 0.4079000055 0.04557500025
 T1 Si 0.25 0.4079000055 0.04557500025
 T1 Si 0.25 0.34210000175 0.04557500025
 T1 Si 0.25 0.34210000175 0.04557500025
 T1 Si 0.25 0.4079000055 0.204425007
 T1 Si 0.25 0.4079000055 0.204425007
 T1 Si 0.34210000175 0.29557500025 0.0
 T1 Si 0.34210000175 0.29557500025 0.0
 T1 Si 0.4079000055 0.454425007 0.0
 T1 Si 0.4079000055 0.454425007 0.0
 T1 Si 0.34210000175 0.454425007 0.0
 T1 Si 0.34210000175 0.454425007 0.0
 T1 Si 0.4079000055 0.29557500025 0.0
 T1 Si 0.4079000055 0.29557500025 0.0
 O1 O 0.5 0.30305000025 0.125
 O1 O 0.5 0.30305000025 0.125
 O1 O 0.5 0.4469500035 0.125
 O1 O 0.5 0.4469500035 0.125
 O1 O 0.625 0.25 0.05305000025
 O1 O 0.625 0.25 0.05305000025
 O1 O 0.625 0.25 0.1969500035
 O1 O 0.625 0.25 0.1969500035
 O1 O 0.5530500002500001 0.375 0.0
 O1 O 0.5530500002500001 0.375 0.0
 O1 O 0.6969500035 0.375 0.0
 O1 O 0.6969500035 0.375 0.0
 O1 O 0.5530500002500001 0.25 0.125
 O1 O 0.5530500002500001 0.25 0.125
 O1 O 0.6969500035 0.25 0.125
 O1 O 0.6969500035 0.25 0.125
 O1 O 0.5 0.375 0.1969500035
 O1 O 0.5 0.375 0.1969500035
 O1 O 0.5 0.375 0.05305000025
 O1 O 0.5 0.375 0.05305000025
 O1 O 0.625 0.30305000025 0.0
 O1 O 0.625 0.30305000025 0.0
 O1 O 0.625 0.4469500035 0.0
 O1 O 0.625 0.4469500035 0.0
 O2 O 0.5275749992500001 0.27757499925 0.0846000015
 O2 O 0.722424999 0.472424999 0.1653999985
 O2 O 0.722424999 0.472424999 0.0846000015
 O2 O 0.5275749992500001 0.27757499925 0.1653999985
 O2 O 0.722424999 0.27757499925 0.1653999985
 O2 O 0.5275749992500001 0.472424999 0.0846000015
 O2 O 0.5275749992500001 0.472424999 0.1653999985
 O2 O 0.722424999 0.27757499925 0.0846000015
 O2 O 0.5846000015 0.27757499925 0.02757499925
 O2 O 0.6653999985 0.472424999 0.222424999
 O2 O 0.5846000015 0.472424999 0.222424999
 O2 O 0.6653999985 0.27757499925 0.02757499925
 O2 O 0.6653999985 0.472424999 0.02757499925
 O2 O 0.5846000015 0.27757499925 0.222424999
 O2 O 0.6653999985 0.27757499925 0.222424999
 O2 O 0.5846000015 0.472424999 0.02757499925
 O2 O 0.5275749992500001 0.3346000015 0.02757499925
 O2 O 0.722424999 0.4153999985 0.222424999
 O2 O 0.722424999 0.3346000015 0.222424999
 O2 O 0.5275749992500001 0.4153999985 0.02757499925
 O2 O 0.5275749992500001 0.4153999985 0.222424999
 O2 O 0.722424999 0.3346000015 0.02757499925
 O2 O 0.722424999 0.4153999985 0.02757499925
 O2 O 0.5275749992500001 0.3346000015 0.222424999
 O3 O 0.5 0.32417500025 0.07417500025
 O3 O 0.5 0.32417500025 0.07417500025
 O3 O 0.5 0.42582499975 0.17582499975
 O3 O 0.5 0.42582499975 0.17582499975
 O3 O 0.5 0.42582499975 0.07417500025
 O3 O 0.5 0.42582499975 0.07417500025
 O3 O 0.5 0.32417500025 0.17582499975
 O3 O 0.5 0.32417500025 0.17582499975
 O3 O 0.57417500025 0.25 0.07417500025
 O3 O 0.57417500025 0.25 0.07417500025
 O3 O 0.67582499975 0.25 0.17582499975
 O3 O 0.67582499975 0.25 0.17582499975
 O3 O 0.57417500025 0.25 0.17582499975
 O3 O 0.57417500025 0.25 0.17582499975
 O3 O 0.67582499975 0.25 0.07417500025
 O3 O 0.67582499975 0.25 0.07417500025
 O3 O 0.57417500025 0.32417500025 0.0
 O3 O 0.57417500025 0.32417500025 0.0
 O3 O 0.67582499975 0.42582499975 0.0
 O3 O 0.67582499975 0.42582499975 0.0
 O3 O 0.67582499975 0.32417500025 0.0
 O3 O 0.67582499975 0.32417500025 0.0
 O3 O 0.57417500025 0.42582499975 0.0
 O3 O 0.57417500025 0.42582499975 0.0
 O2 O 0.722424999 0.27757499925 0.0846000015
 O2 O 0.52757498625 0.27757499925 0.0846000015
 O2 O 0.722424999 0.472424999 0.1653999985
 O2 O 0.52757498625 0.472424999 0.1653999985
 O2 O 0.722424999 0.472424999 0.0846000015
 O2 O 0.52757498625 0.472424999 0.0846000015
 O2 O 0.722424999 0.27757499925 0.1653999985
 O2 O 0.52757498625 0.27757499925 0.1653999985
 O2 O 0.5846000015 0.472424999 0.02757499925
 O2 O 0.5846000015 0.27757498625 0.02757499925
 O2 O 0.6653999985 0.472424999 0.222424999
 O2 O 0.6653999985 0.27757498625 0.222424999
 O2 O 0.5846000015 0.472424999 0.222424999
 O2 O 0.5846000015 0.27757498625 0.222424999
 O2 O 0.6653999985 0.472424999 0.02757499925
 O2 O 0.6653999985 0.27757498625 0.02757499925
 O2 O 0.5275749992500001 0.3346000015 0.222424999
 O2 O 0.5275749992500001 0.3346000015 0.02757498625
 O2 O 0.722424999 0.4153999985 0.222424999
 O2 O 0.722424999 0.4153999985 0.02757498625
 O2 O 0.722424999 0.3346000015 0.222424999
 O2 O 0.722424999 0.3346000015 0.02757498625
 O2 O 0.5275749992500001 0.4153999985 0.222424999
 O2 O 0.5275749992500001 0.4153999985 0.02757498625
 O2 O 0.5275749992500001 0.472424999 0.1653999985
 O2 O 0.5275749992500001 0.27757498625 0.1653999985
 O2 O 0.722424999 0.472424999 0.0846000015
 O2 O 0.722424999 0.27757498625 0.0846000015
 O2 O 0.722424999 0.472424999 0.1653999985
 O2 O 0.722424999 0.27757498625 0.1653999985
 O2 O 0.5275749992500001 0.472424999 0.0846000015
 O2 O 0.5275749992500001 0.27757498625 0.0846000015
 O2 O 0.722424999 0.3346000015 0.222424999
 O2 O 0.52757498625 0.3346000015 0.222424999
 O2 O 0.722424999 0.4153999985 0.02757499925
 O2 O 0.52757498625 0.4153999985 0.02757499925
 O2 O 0.722424999 0.3346000015 0.02757499925
 O2 O 0.52757498625 0.3346000015 0.02757499925
 O2 O 0.722424999 0.4153999985 0.222424999
 O2 O 0.52757498625 0.4153999985 0.222424999
 O2 O 0.5846000015 0.27757499925 0.222424999
 O2 O 0.5846000015 0.27757499925 0.02757498625
 O2 O 0.6653999985 0.472424999 0.222424999
 O2 O 0.6653999985 0.472424999 0.02757498625
 O2 O 0.5846000015 0.472424999 0.222424999
 O2 O 0.5846000015 0.472424999 0.02757498625
 O2 O 0.6653999985 0.27757499925 0.222424999
 O2 O 0.6653999985 0.27757499925 0.02757498625
 T1 Si 0.5 0.29557500025 0.09210000175
 T1 Si 0.5 0.29557500025 0.09210000175
 T1 Si 0.5 0.454425007 0.1579000055
 T1 Si 0.5 0.454425007 0.1579000055
 T1 Si 0.5 0.454425007 0.09210000175
 T1 Si 0.5 0.454425007 0.09210000175
 T1 Si 0.5 0.29557500025 0.1579000055
 T1 Si 0.5 0.29557500025 0.1579000055
 T1 Si 0.59210000175 0.25 0.04557500025
 T1 Si 0.59210000175 0.25 0.04557500025
 T1 Si 0.6579000054999999 0.25 0.204425007
 T1 Si 0.6579000054999999 0.25 0.204425007
 T1 Si 0.59210000175 0.25 0.204425007
 T1 Si 0.59210000175 0.25 0.204425007
 T1 Si 0.6579000054999999 0.25 0.04557500025
 T1 Si 0.6579000054999999 0.25 0.04557500025
 T1 Si 0.5455750002499999 0.34210000175 0.0
 T1 Si 0.5455750002499999 0.34210000175 0.0
 T1 Si 0.704425007 0.4079000055 0.0
 T1 Si 0.704425007 0.4079000055 0.0
 T1 Si 0.704425007 0.34210000175 0.0
 T1 Si 0.704425007 0.34210000175 0.0
 T1 Si 0.5455750002499999 0.4079000055 0.0
 T1 Si 0.5455750002499999 0.4079000055 0.0
 T1 Si 0.5455750002499999 0.25 0.1579000055
 T1 Si 0.5455750002499999 0.25 0.1579000055
 T1 Si 0.704425007 0.25 0.09210000175
 T1 Si 0.704425007 0.25 0.09210000175
 T1 Si 0.704425007 0.25 0.1579000055
 T1 Si 0.704425007 0.25 0.1579000055
 T1 Si 0.5455750002499999 0.25 0.09210000175
 T1 Si 0.5455750002499999 0.25 0.09210000175
 T1 Si 0.5 0.34210000175 0.204425007
 T1 Si 0.5 0.34210000175 0.204425007
 T1 Si 0.5 0.4079000055 0.04557500025
 T1 Si 0.5 0.4079000055 0.04557500025
 T1 Si 0.5 0.34210000175 0.04557500025
 T1 Si 0.5 0.34210000175 0.04557500025
 T1 Si 0.5 0.4079000055 0.204425007
 T1 Si 0.5 0.4079000055 0.204425007
 T1 Si 0.59210000175 0.29557500025 0.0
 T1 Si 0.59210000175 0.29557500025 0.0
 T1 Si 0.6579000054999999 0.454425007 0.0
 T1 Si 0.6579000054999999 0.454425007 0.0
 T1 Si 0.59210000175 0.454425007 0.0
 T1 Si 0.59210000175 0.454425007 0.0
 T1 Si 0.6579000054999999 0.29557500025 0.0
 T1 Si 0.6579000054999999 0.29557500025 0.0
 O1 O 0.75 0.30305000025 0.125
 O1 O 0.75 0.30305000025 0.125
 O1 O 0.75 0.4469500035 0.125
 O1 O 0.75 0.4469500035 0.125
 O1 O 0.875 0.25 0.05305000025
 O1 O 0.875 0.25 0.05305000025
 O1 O 0.875 0.25 0.1969500035
 O1 O 0.875 0.25 0.1969500035
 O1 O 0.8030500002500001 0.375 0.0
 O1 O 0.8030500002500001 0.375 0.0
 O1 O 0.9469500035 0.375 0.0
 O1 O 0.9469500035 0.375 0.0
 O1 O 0.8030500002500001 0.25 0.125
 O1 O 0.8030500002500001 0.25 0.125
 O1 O 0.9469500035 0.25 0.125
 O1 O 0.9469500035 0.25 0.125
 O1 O 0.75 0.375 0.1969500035
 O1 O 0.75 0.375 0.1969500035
 O1 O 0.75 0.375 0.05305000025
 O1 O 0.75 0.375 0.05305000025
 O1 O 0.875 0.30305000025 0.0
 O1 O 0.875 0.30305000025 0.0
 O1 O 0.875 0.4469500035 0.0
 O1 O 0.875 0.4469500035 0.0
 O2 O 0.7775749992500001 0.27757499925 0.0846000015
 O2 O 0.972424999 0.472424999 0.1653999985
 O2 O 0.972424999 0.472424999 0.0846000015
 O2 O 0.7775749992500001 0.27757499925 0.1653999985
 O2 O 0.972424999 0.27757499925 0.1653999985
 O2 O 0.7775749992500001 0.472424999 0.0846000015
 O2 O 0.7775749992500001 0.472424999 0.1653999985
 O2 O 0.972424999 0.27757499925 0.0846000015
 O2 O 0.8346000015 0.27757499925 0.02757499925
 O2 O 0.9153999985 0.472424999 0.222424999
 O2 O 0.8346000015 0.472424999 0.222424999
 O2 O 0.9153999985 0.27757499925 0.02757499925
 O2 O 0.9153999985 0.472424999 0.02757499925
 O2 O 0.8346000015 0.27757499925 0.222424999
 O2 O 0.9153999985 0.27757499925 0.222424999
 O2 O 0.8346000015 0.472424999 0.02757499925
 O2 O 0.7775749992500001 0.3346000015 0.02757499925
 O2 O 0.972424999 0.4153999985 0.222424999
 O2 O 0.972424999 0.3346000015 0.222424999
 O2 O 0.7775749992500001 0.4153999985 0.02757499925
 O2 O 0.7775749992500001 0.4153999985 0.222424999
 O2 O 0.972424999 0.3346000015 0.02757499925
 O2 O 0.972424999 0.4153999985 0.02757499925
 O2 O 0.7775749992500001 0.3346000015 0.222424999
 O3 O 0.75 0.32417500025 0.07417500025
 O3 O 0.75 0.32417500025 0.07417500025
 O3 O 0.75 0.42582499975 0.17582499975
 O3 O 0.75 0.42582499975 0.17582499975
 O3 O 0.75 0.42582499975 0.07417500025
 O3 O 0.75 0.42582499975 0.07417500025
 O3 O 0.75 0.32417500025 0.17582499975
 O3 O 0.75 0.32417500025 0.17582499975
 O3 O 0.82417500025 0.25 0.07417500025
 O3 O 0.82417500025 0.25 0.07417500025
 O3 O 0.92582499975 0.25 0.17582499975
 O3 O 0.92582499975 0.25 0.17582499975
 O3 O 0.82417500025 0.25 0.17582499975
 O3 O 0.82417500025 0.25 0.17582499975
 O3 O 0.92582499975 0.25 0.07417500025
 O3 O 0.92582499975 0.25 0.07417500025
 O3 O 0.82417500025 0.32417500025 0.0
 O3 O 0.82417500025 0.32417500025 0.0
 O3 O 0.92582499975 0.42582499975 0.0
 O3 O 0.92582499975 0.42582499975 0.0
 O3 O 0.92582499975 0.32417500025 0.0
 O3 O 0.92582499975 0.32417500025 0.0
 O3 O 0.82417500025 0.42582499975 0.0
 O3 O 0.82417500025 0.42582499975 0.0
 O2 O 0.972424999 0.27757499925 0.0846000015
 O2 O 0.77757498625 0.27757499925 0.0846000015
 O2 O 0.972424999 0.472424999 0.1653999985
 O2 O 0.77757498625 0.472424999 0.1653999985
 O2 O 0.972424999 0.472424999 0.0846000015
 O2 O 0.77757498625 0.472424999 0.0846000015
 O2 O 0.972424999 0.27757499925 0.1653999985
 O2 O 0.77757498625 0.27757499925 0.1653999985
 O2 O 0.8346000015 0.472424999 0.02757499925
 O2 O 0.8346000015 0.27757498625 0.02757499925
 O2 O 0.9153999985 0.472424999 0.222424999
 O2 O 0.9153999985 0.27757498625 0.222424999
 O2 O 0.8346000015 0.472424999 0.222424999
 O2 O 0.8346000015 0.27757498625 0.222424999
 O2 O 0.9153999985 0.472424999 0.02757499925
 O2 O 0.9153999985 0.27757498625 0.02757499925
 O2 O 0.7775749992500001 0.3346000015 0.222424999
 O2 O 0.7775749992500001 0.3346000015 0.02757498625
 O2 O 0.972424999 0.4153999985 0.222424999
 O2 O 0.972424999 0.4153999985 0.02757498625
 O2 O 0.972424999 0.3346000015 0.222424999
 O2 O 0.972424999 0.3346000015 0.02757498625
 O2 O 0.7775749992500001 0.4153999985 0.222424999
 O2 O 0.7775749992500001 0.4153999985 0.02757498625
 O2 O 0.7775749992500001 0.472424999 0.1653999985
 O2 O 0.7775749992500001 0.27757498625 0.1653999985
 O2 O 0.972424999 0.472424999 0.0846000015
 O2 O 0.972424999 0.27757498625 0.0846000015
 O2 O 0.972424999 0.472424999 0.1653999985
 O2 O 0.972424999 0.27757498625 0.1653999985
 O2 O 0.7775749992500001 0.472424999 0.0846000015
 O2 O 0.7775749992500001 0.27757498625 0.0846000015
 O2 O 0.972424999 0.3346000015 0.222424999
 O2 O 0.77757498625 0.3346000015 0.222424999
 O2 O 0.972424999 0.4153999985 0.02757499925
 O2 O 0.77757498625 0.4153999985 0.02757499925
 O2 O 0.972424999 0.3346000015 0.02757499925
 O2 O 0.77757498625 0.3346000015 0.02757499925
 O2 O 0.972424999 0.4153999985 0.222424999
 O2 O 0.77757498625 0.4153999985 0.222424999
 O2 O 0.8346000015 0.27757499925 0.222424999
 O2 O 0.8346000015 0.27757499925 0.02757498625
 O2 O 0.9153999985 0.472424999 0.222424999
 O2 O 0.9153999985 0.472424999 0.02757498625
 O2 O 0.8346000015 0.472424999 0.222424999
 O2 O 0.8346000015 0.472424999 0.02757498625
 O2 O 0.9153999985 0.27757499925 0.222424999
 O2 O 0.9153999985 0.27757499925 0.02757498625
 T1 Si 0.75 0.29557500025 0.09210000175
 T1 Si 0.75 0.29557500025 0.09210000175
 T1 Si 0.75 0.454425007 0.1579000055
 T1 Si 0.75 0.454425007 0.1579000055
 T1 Si 0.75 0.454425007 0.09210000175
 T1 Si 0.75 0.454425007 0.09210000175
 T1 Si 0.75 0.29557500025 0.1579000055
 T1 Si 0.75 0.29557500025 0.1579000055
 T1 Si 0.84210000175 0.25 0.04557500025
 T1 Si 0.84210000175 0.25 0.04557500025
 T1 Si 0.9079000054999999 0.25 0.204425007
 T1 Si 0.9079000054999999 0.25 0.204425007
 T1 Si 0.84210000175 0.25 0.204425007
 T1 Si 0.84210000175 0.25 0.204425007
 T1 Si 0.9079000054999999 0.25 0.04557500025
 T1 Si 0.9079000054999999 0.25 0.04557500025
 T1 Si 0.7955750002499999 0.34210000175 0.0
 T1 Si 0.7955750002499999 0.34210000175 0.0
 T1 Si 0.954425007 0.4079000055 0.0
 T1 Si 0.954425007 0.4079000055 0.0
 T1 Si 0.954425007 0.34210000175 0.0
 T1 Si 0.954425007 0.34210000175 0.0
 T1 Si 0.7955750002499999 0.4079000055 0.0
 T1 Si 0.7955750002499999 0.4079000055 0.0
 T1 Si 0.7955750002499999 0.25 0.1579000055
 T1 Si 0.7955750002499999 0.25 0.1579000055
 T1 Si 0.954425007 0.25 0.09210000175
 T1 Si 0.954425007 0.25 0.09210000175
 T1 Si 0.954425007 0.25 0.1579000055
 T1 Si 0.954425007 0.25 0.1579000055
 T1 Si 0.7955750002499999 0.25 0.09210000175
 T1 Si 0.7955750002499999 0.25 0.09210000175
 T1 Si 0.75 0.34210000175 0.204425007
 T1 Si 0.75 0.34210000175 0.204425007
 T1 Si 0.75 0.4079000055 0.04557500025
 T1 Si 0.75 0.4079000055 0.04557500025
 T1 Si 0.75 0.34210000175 0.04557500025
 T1 Si 0.75 0.34210000175 0.04557500025
 T1 Si 0.75 0.4079000055 0.204425007
 T1 Si 0.75 0.4079000055 0.204425007
 T1 Si 0.84210000175 0.29557500025 0.0
 T1 Si 0.84210000175 0.29557500025 0.0
 T1 Si 0.9079000054999999 0.454425007 0.0
 T1 Si 0.9079000054999999 0.454425007 0.0
 T1 Si 0.84210000175 0.454425007 0.0
 T1 Si 0.84210000175 0.454425007 0.0
 T1 Si 0.9079000054999999 0.29557500025 0.0
 T1 Si 0.9079000054999999 0.29557500025 0.0
 O1 O 0.0 0.5530500002500001 0.125
 O1 O 0.0 0.5530500002500001 0.125
 O1 O 0.0 0.6969500035 0.125
 O1 O 0.0 0.6969500035 0.125
 O1 O 0.125 0.5 0.05305000025
 O1 O 0.125 0.5 0.05305000025
 O1 O 0.125 0.5 0.1969500035
 O1 O 0.125 0.5 0.1969500035
 O1 O 0.05305000025 0.625 0.0
 O1 O 0.05305000025 0.625 0.0
 O1 O 0.1969500035 0.625 0.0
 O1 O 0.1969500035 0.625 0.0
 O1 O 0.05305000025 0.5 0.125
 O1 O 0.05305000025 0.5 0.125
 O1 O 0.1969500035 0.5 0.125
 O1 O 0.1969500035 0.5 0.125
 O1 O 0.0 0.625 0.1969500035
 O1 O 0.0 0.625 0.1969500035
 O1 O 0.0 0.625 0.05305000025
 O1 O 0.0 0.625 0.05305000025
 O1 O 0.125 0.5530500002500001 0.0
 O1 O 0.125 0.5530500002500001 0.0
 O1 O 0.125 0.6969500035 0.0
 O1 O 0.125 0.6969500035 0.0
 O2 O 0.02757499925 0.5275749992500001 0.0846000015
 O2 O 0.222424999 0.722424999 0.1653999985
 O2 O 0.222424999 0.722424999 0.0846000015
 O2 O 0.02757499925 0.5275749992500001 0.1653999985
 O2 O 0.222424999 0.5275749992500001 0.1653999985
 O2 O 0.02757499925 0.722424999 0.0846000015
 O2 O 0.02757499925 0.722424999 0.1653999985
 O2 O 0.222424999 0.5275749992500001 0.0846000015
 O2 O 0.0846000015 0.5275749992500001 0.02757499925
 O2 O 0.1653999985 0.722424999 0.222424999
 O2 O 0.0846000015 0.722424999 0.222424999
 O2 O 0.1653999985 0.5275749992500001 0.02757499925
 O2 O 0.1653999985 0.722424999 0.02757499925
 O2 O 0.0846000015 0.5275749992500001 0.222424999
 O2 O 0.1653999985 0.5275749992500001 0.222424999
 O2 O 0.0846000015 0.722424999 0.02757499925
 O2 O 0.02757499925 0.5846000015 0.02757499925
 O2 O 0.222424999 0.6653999985 0.222424999
 O2 O 0.222424999 0.5846000015 0.222424999
 O2 O 0.02757499925 0.6653999985 0.02757499925
 O2 O 0.02757499925 0.6653999985 0.222424999
 O2 O 0.222424999 0.5846000015 0.02757499925
 O2 O 0.222424999 0.6653999985 0.02757499925
 O2 O 0.02757499925 0.5846000015 0.222424999
 O3 O 0.0 0.57417500025 0.07417500025
 O3 O 0.0 0.57417500025 0.07417500025
 O3 O 0.0 0.67582499975 0.17582499975
 O3 O 0.0 0.67582499975 0.17582499975
 O3 O 0.0 0.67582499975 0.07417500025
 O3 O 0.0 0.67582499975 0.07417500025
 O3 O 0.0 0.57417500025 0.17582499975
 O3 O 0.0 0.57417500025 0.17582499975
 O3 O 0.07417500025 0.5 0.07417500025
 O3 O 0.07417500025 0.5 0.07417500025
 O3 O 0.17582499975 0.5 0.17582499975
 O3 O 0.17582499975 0.5 0.17582499975
 O3 O 0.07417500025 0.5 0.17582499975
 O3 O 0.07417500025 0.5 0.17582499975
 O3 O 0.17582499975 0.5 0.07417500025
 O3 O 0.17582499975 0.5 0.07417500025
 O3 O 0.07417500025 0.57417500025 0.0
 O3 O 0.07417500025 0.57417500025 0.0
 O3 O 0.17582499975 0.67582499975 0.0
 O3 O 0.17582499975 0.67582499975 0.0
 O3 O 0.17582499975 0.57417500025 0.0
 O3 O 0.17582499975 0.57417500025 0.0
 O3 O 0.07417500025 0.67582499975 0.0
 O3 O 0.07417500025 0.67582499975 0.0
 O2 O 0.222424999 0.5275749992500001 0.0846000015
 O2 O 0.02757498625 0.5275749992500001 0.0846000015
 O2 O 0.222424999 0.722424999 0.1653999985
 O2 O 0.02757498625 0.722424999 0.1653999985
 O2 O 0.222424999 0.722424999 0.0846000015
 O2 O 0.02757498625 0.722424999 0.0846000015
 O2 O 0.222424999 0.5275749992500001 0.1653999985
 O2 O 0.02757498625 0.5275749992500001 0.1653999985
 O2 O 0.0846000015 0.722424999 0.02757499925
 O2 O 0.0846000015 0.52757498625 0.02757499925
 O2 O 0.1653999985 0.722424999 0.222424999
 O2 O 0.1653999985 0.52757498625 0.222424999
 O2 O 0.0846000015 0.722424999 0.222424999
 O2 O 0.0846000015 0.52757498625 0.222424999
 O2 O 0.1653999985 0.722424999 0.02757499925
 O2 O 0.1653999985 0.52757498625 0.02757499925
 O2 O 0.02757499925 0.5846000015 0.222424999
 O2 O 0.02757499925 0.5846000015 0.02757498625
 O2 O 0.222424999 0.6653999985 0.222424999
 O2 O 0.222424999 0.6653999985 0.02757498625
 O2 O 0.222424999 0.5846000015 0.222424999
 O2 O 0.222424999 0.5846000015 0.02757498625
 O2 O 0.02757499925 0.6653999985 0.222424999
 O2 O 0.02757499925 0.6653999985 0.02757498625
 O2 O 0.02757499925 0.722424999 0.1653999985
 O2 O 0.02757499925 0.52757498625 0.1653999985
 O2 O 0.222424999 0.722424999 0.0846000015
 O2 O 0.222424999 0.52757498625 0.0846000015
 O2 O 0.222424999 0.722424999 0.1653999985
 O2 O 0.222424999 0.52757498625 0.1653999985
 O2 O 0.02757499925 0.722424999 0.0846000015
 O2 O 0.02757499925 0.52757498625 0.0846000015
 O2 O 0.222424999 0.5846000015 0.222424999
 O2 O 0.02757498625 0.5846000015 0.222424999
 O2 O 0.222424999 0.6653999985 0.02757499925
 O2 O 0.02757498625 0.6653999985 0.02757499925
 O2 O 0.222424999 0.5846000015 0.02757499925
 O2 O 0.02757498625 0.5846000015 0.02757499925
 O2 O 0.222424999 0.6653999985 0.222424999
 O2 O 0.02757498625 0.6653999985 0.222424999
 O2 O 0.0846000015 0.5275749992500001 0.222424999
 O2 O 0.0846000015 0.5275749992500001 0.02757498625
 O2 O 0.1653999985 0.722424999 0.222424999
 O2 O 0.1653999985 0.722424999 0.02757498625
 O2 O 0.0846000015 0.722424999 0.222424999
 O2 O 0.0846000015 0.722424999 0.02757498625
 O2 O 0.1653999985 0.5275749992500001 0.222424999
 O2 O 0.1653999985 0.5275749992500001 0.02757498625
 T1 Si 0.0 0.5455750002499999 0.09210000175
 T1 Si 0.0 0.5455750002499999 0.09210000175
 T1 Si 0.0 0.704425007 0.1579000055
 T1 Si 0.0 0.704425007 0.1579000055
 T1 Si 0.0 0.704425007 0.09210000175
 T1 Si 0.0 0.704425007 0.09210000175
 T1 Si 0.0 0.5455750002499999 0.1579000055
 T1 Si 0.0 0.5455750002499999 0.1579000055
 T1 Si 0.09210000175 0.5 0.04557500025
 T1 Si 0.09210000175 0.5 0.04557500025
 T1 Si 0.1579000055 0.5 0.204425007
 T1 Si 0.1579000055 0.5 0.204425007
 T1 Si 0.09210000175 0.5 0.204425007
 T1 Si 0.09210000175 0.5 0.204425007
 T1 Si 0.1579000055 0.5 0.04557500025
 T1 Si 0.1579000055 0.5 0.04557500025
 T1 Si 0.04557500025 0.59210000175 0.0
 T1 Si 0.04557500025 0.59210000175 0.0
 T1 Si 0.204425007 0.6579000054999999 0.0
 T1 Si 0.204425007 0.6579000054999999 0.0
 T1 Si 0.204425007 0.59210000175 0.0
 T1 Si 0.204425007 0.59210000175 0.0
 T1 Si 0.04557500025 0.6579000054999999 0.0
 T1 Si 0.04557500025 0.6579000054999999 0.0
 T1 Si 0.04557500025 0.5 0.1579000055
 T1 Si 0.04557500025 0.5 0.1579000055
 T1 Si 0.204425007 0.5 0.09210000175
 T1 Si 0.204425007 0.5 0.09210000175
 T1 Si 0.204425007 0.5 0.1579000055
 T1 Si 0.204425007 0.5 0.1579000055
 T1 Si 0.04557500025 0.5 0.09210000175
 T1 Si 0.04557500025 0.5 0.09210000175
 T1 Si 0.0 0.59210000175 0.204425007
 T1 Si 0.0 0.59210000175 0.204425007
 T1 Si 0.0 0.6579000054999999 0.04557500025
 T1 Si 0.0 0.6579000054999999 0.04557500025
 T1 Si 0.0 0.59210000175 0.04557500025
 T1 Si 0.0 0.59210000175 0.04557500025
 T1 Si 0.0 0.6579000054999999 0.204425007
 T1 Si 0.0 0.6579000054999999 0.204425007
 T1 Si 0.09210000175 0.5455750002499999 0.0
 T1 Si 0.09210000175 0.5455750002499999 0.0
 T1 Si 0.1579000055 0.704425007 0.0
 T1 Si 0.1579000055 0.704425007 0.0
 T1 Si 0.09210000175 0.704425007 0.0
 T1 Si 0.09210000175 0.704425007 0.0
 T1 Si 0.1579000055 0.5455750002499999 0.0
 T1 Si 0.1579000055 0.5455750002499999 0.0
 O1 O 0.25 0.5530500002500001 0.125
 O1 O 0.25 0.5530500002500001 0.125
 O1 O 0.25 0.6969500035 0.125
 O1 O 0.25 0.6969500035 0.125
 O1 O 0.375 0.5 0.05305000025
 O1 O 0.375 0.5 0.05305000025
 O1 O 0.375 0.5 0.1969500035
 O1 O 0.375 0.5 0.1969500035
 O1 O 0.30305000025 0.625 0.0
 O1 O 0.30305000025 0.625 0.0
 O1 O 0.4469500035 0.625 0.0
 O1 O 0.4469500035 0.625 0.0
 O1 O 0.30305000025 0.5 0.125
 O1 O 0.30305000025 0.5 0.125
 O1 O 0.4469500035 0.5 0.125
 O1 O 0.4469500035 0.5 0.125
 O1 O 0.25 0.625 0.1969500035
 O1 O 0.25 0.625 0.1969500035
 O1 O 0.25 0.625 0.05305000025
 O1 O 0.25 0.625 0.05305000025
 O1 O 0.375 0.5530500002500001 0.0
 O1 O 0.375 0.5530500002500001 0.0
 O1 O 0.375 0.6969500035 0.0
 O1 O 0.375 0.6969500035 0.0
 O2 O 0.27757499925 0.5275749992500001 0.0846000015
 O2 O 0.472424999 0.722424999 0.1653999985
 O2 O 0.472424999 0.722424999 0.0846000015
 O2 O 0.27757499925 0.5275749992500001 0.1653999985
 O2 O 0.472424999 0.5275749992500001 0.1653999985
 O2 O 0.27757499925 0.722424999 0.0846000015
 O2 O 0.27757499925 0.722424999 0.1653999985
 O2 O 0.472424999 0.5275749992500001 0.0846000015
 O2 O 0.3346000015 0.5275749992500001 0.02757499925
 O2 O 0.4153999985 0.722424999 0.222424999
 O2 O 0.3346000015 0.722424999 0.222424999
 O2 O 0.4153999985 0.5275749992500001 0.02757499925
 O2 O 0.4153999985 0.722424999 0.02757499925
 O2 O 0.3346000015 0.5275749992500001 0.222424999
 O2 O 0.4153999985 0.5275749992500001 0.222424999
 O2 O 0.3346000015 0.722424999 0.02757499925
 O2 O 0.27757499925 0.5846000015 0.02757499925
 O2 O 0.472424999 0.6653999985 0.222424999
 O2 O 0.472424999 0.5846000015 0.222424999
 O2 O 0.27757499925 0.6653999985 0.02757499925
 O2 O 0.27757499925 0.6653999985 0.222424999
 O2 O 0.472424999 0.5846000015 0.02757499925
 O2 O 0.472424999 0.6653999985 0.02757499925
 O2 O 0.27757499925 0.5846000015 0.222424999
 O3 O 0.25 0.57417500025 0.07417500025
 O3 O 0.25 0.57417500025 0.07417500025
 O3 O 0.25 0.67582499975 0.17582499975
 O3 O 0.25 0.67582499975 0.17582499975
 O3 O 0.25 0.67582499975 0.07417500025
 O3 O 0.25 0.67582499975 0.07417500025
 O3 O 0.25 0.57417500025 0.17582499975
 O3 O 0.25 0.57417500025 0.17582499975
 O3 O 0.32417500025 0.5 0.07417500025
 O3 O 0.32417500025 0.5 0.07417500025
 O3 O 0.42582499975 0.5 0.17582499975
 O3 O 0.42582499975 0.5 0.17582499975
 O3 O 0.32417500025 0.5 0.17582499975
 O3 O 0.32417500025 0.5 0.17582499975
 O3 O 0.42582499975 0.5 0.07417500025
 O3 O 0.42582499975 0.5 0.07417500025
 O3 O 0.32417500025 0.57417500025 0.0
 O3 O 0.32417500025 0.57417500025 0.0
 O3 O 0.42582499975 0.67582499975 0.0
 O3 O 0.42582499975 0.67582499975 0.0
 O3 O 0.42582499975 0.57417500025 0.0
 O3 O 0.42582499975 0.57417500025 0.0
 O3 O 0.32417500025 0.67582499975 0.0
 O3 O 0.32417500025 0.67582499975 0.0
 O2 O 0.472424999 0.5275749992500001 0.0846000015
 O2 O 0.27757498625 0.5275749992500001 0.0846000015
 O2 O 0.472424999 0.722424999 0.1653999985
 O2 O 0.27757498625 0.722424999 0.1653999985
 O2 O 0.472424999 0.722424999 0.0846000015
 O2 O 0.27757498625 0.722424999 0.0846000015
 O2 O 0.472424999 0.5275749992500001 0.1653999985
 O2 O 0.27757498625 0.5275749992500001 0.1653999985
 O2 O 0.3346000015 0.722424999 0.02757499925
 O2 O 0.3346000015 0.52757498625 0.02757499925
 O2 O 0.4153999985 0.722424999 0.222424999
 O2 O 0.4153999985 0.52757498625 0.222424999
 O2 O 0.3346000015 0.722424999 0.222424999
 O2 O 0.3346000015 0.52757498625 0.222424999
 O2 O 0.4153999985 0.722424999 0.02757499925
 O2 O 0.4153999985 0.52757498625 0.02757499925
 O2 O 0.27757499925 0.5846000015 0.222424999
 O2 O 0.27757499925 0.5846000015 0.02757498625
 O2 O 0.472424999 0.6653999985 0.222424999
 O2 O 0.472424999 0.6653999985 0.02757498625
 O2 O 0.472424999 0.5846000015 0.222424999
 O2 O 0.472424999 0.5846000015 0.02757498625
 O2 O 0.27757499925 0.6653999985 0.222424999
 O2 O 0.27757499925 0.6653999985 0.02757498625
 O2 O 0.27757499925 0.722424999 0.1653999985
 O2 O 0.27757499925 0.52757498625 0.1653999985
 O2 O 0.472424999 0.722424999 0.0846000015
 O2 O 0.472424999 0.52757498625 0.0846000015
 O2 O 0.472424999 0.722424999 0.1653999985
 O2 O 0.472424999 0.52757498625 0.1653999985
 O2 O 0.27757499925 0.722424999 0.0846000015
 O2 O 0.27757499925 0.52757498625 0.0846000015
 O2 O 0.472424999 0.5846000015 0.222424999
 O2 O 0.27757498625 0.5846000015 0.222424999
 O2 O 0.472424999 0.6653999985 0.02757499925
 O2 O 0.27757498625 0.6653999985 0.02757499925
 O2 O 0.472424999 0.5846000015 0.02757499925
 O2 O 0.27757498625 0.5846000015 0.02757499925
 O2 O 0.472424999 0.6653999985 0.222424999
 O2 O 0.27757498625 0.6653999985 0.222424999
 O2 O 0.3346000015 0.5275749992500001 0.222424999
 O2 O 0.3346000015 0.5275749992500001 0.02757498625
 O2 O 0.4153999985 0.722424999 0.222424999
 O2 O 0.4153999985 0.722424999 0.02757498625
 O2 O 0.3346000015 0.722424999 0.222424999
 O2 O 0.3346000015 0.722424999 0.02757498625
 O2 O 0.4153999985 0.5275749992500001 0.222424999
 O2 O 0.4153999985 0.5275749992500001 0.02757498625
 T1 Si 0.25 0.5455750002499999 0.09210000175
 T1 Si 0.25 0.5455750002499999 0.09210000175
 T1 Si 0.25 0.704425007 0.1579000055
 T1 Si 0.25 0.704425007 0.1579000055
 T1 Si 0.25 0.704425007 0.09210000175
 T1 Si 0.25 0.704425007 0.09210000175
 T1 Si 0.25 0.5455750002499999 0.1579000055
 T1 Si 0.25 0.5455750002499999 0.1579000055
 T1 Si 0.34210000175 0.5 0.04557500025
 T1 Si 0.34210000175 0.5 0.04557500025
 T1 Si 0.4079000055 0.5 0.204425007
 T1 Si 0.4079000055 0.5 0.204425007
 T1 Si 0.34210000175 0.5 0.204425007
 T1 Si 0.34210000175 0.5 0.204425007
 T1 Si 0.4079000055 0.5 0.04557500025
 T1 Si 0.4079000055 0.5 0.04557500025
 T1 Si 0.29557500025 0.59210000175 0.0
 T1 Si 0.29557500025 0.59210000175 0.0
 T1 Si 0.454425007 0.6579000054999999 0.0
 T1 Si 0.454425007 0.6579000054999999 0.0
 T1 Si 0.454425007 0.59210000175 0.0
 T1 Si 0.454425007 0.59210000175 0.0
 T1 Si 0.29557500025 0.6579000054999999 0.0
 T1 Si 0.29557500025 0.6579000054999999 0.0
 T1 Si 0.29557500025 0.5 0.1579000055
 T1 Si 0.29557500025 0.5 0.1579000055
 T1 Si 0.454425007 0.5 0.09210000175
 T1 Si 0.454425007 0.5 0.09210000175
 T1 Si 0.454425007 0.5 0.1579000055
 T1 Si 0.454425007 0.5 0.1579000055
 T1 Si 0.29557500025 0.5 0.09210000175
 T1 Si 0.29557500025 0.5 0.09210000175
 T1 Si 0.25 0.59210000175 0.204425007
 T1 Si 0.25 0.59210000175 0.204425007
 T1 Si 0.25 0.6579000054999999 0.04557500025
 T1 Si 0.25 0.6579000054999999 0.04557500025
 T1 Si 0.25 0.59210000175 0.04557500025
 T1 Si 0.25 0.59210000175 0.04557500025
 T1 Si 0.25 0.6579000054999999 0.204425007
 T1 Si 0.25 0.6579000054999999 0.204425007
 T1 Si 0.34210000175 0.5455750002499999 0.0
 T1 Si 0.34210000175 0.5455750002499999 0.0
 T1 Si 0.4079000055 0.704425007 0.0
 T1 Si 0.4079000055 0.704425007 0.0
 T1 Si 0.34210000175 0.704425007 0.0
 T1 Si 0.34210000175 0.704425007 0.0
 T1 Si 0.4079000055 0.5455750002499999 0.0
 T1 Si 0.4079000055 0.5455750002499999 0.0
 O1 O 0.5 0.5530500002500001 0.125
 O1 O 0.5 0.5530500002500001 0.125
 O1 O 0.5 0.6969500035 0.125
 O1 O 0.5 0.6969500035 0.125
 O1 O 0.625 0.5 0.05305000025
 O1 O 0.625 0.5 0.05305000025
 O1 O 0.625 0.5 0.1969500035
 O1 O 0.625 0.5 0.1969500035
 O1 O 0.5530500002500001 0.625 0.0
 O1 O 0.5530500002500001 0.625 0.0
 O1 O 0.6969500035 0.625 0.0
 O1 O 0.6969500035 0.625 0.0
 O1 O 0.5530500002500001 0.5 0.125
 O1 O 0.5530500002500001 0.5 0.125
 O1 O 0.6969500035 0.5 0.125
 O1 O 0.6969500035 0.5 0.125
 O1 O 0.5 0.625 0.1969500035
 O1 O 0.5 0.625 0.1969500035
 O1 O 0.5 0.625 0.05305000025
 O1 O 0.5 0.625 0.05305000025
 O1 O 0.625 0.5530500002500001 0.0
 O1 O 0.625 0.5530500002500001 0.0
 O1 O 0.625 0.6969500035 0.0
 O1 O 0.625 0.6969500035 0.0
 O2 O 0.5275749992500001 0.5275749992500001 0.0846000015
 O2 O 0.722424999 0.722424999 0.1653999985
 O2 O 0.722424999 0.722424999 0.0846000015
 O2 O 0.5275749992500001 0.5275749992500001 0.1653999985
 O2 O 0.722424999 0.5275749992500001 0.1653999985
 O2 O 0.5275749992500001 0.722424999 0.0846000015
 O2 O 0.5275749992500001 0.722424999 0.1653999985
 O2 O 0.722424999 0.5275749992500001 0.0846000015
 O2 O 0.5846000015 0.5275749992500001 0.02757499925
 O2 O 0.6653999985 0.722424999 0.222424999
 O2 O 0.5846000015 0.722424999 0.222424999
 O2 O 0.6653999985 0.5275749992500001 0.02757499925
 O2 O 0.6653999985 0.722424999 0.02757499925
 O2 O 0.5846000015 0.5275749992500001 0.222424999
 O2 O 0.6653999985 0.5275749992500001 0.222424999
 O2 O 0.5846000015 0.722424999 0.02757499925
 O2 O 0.5275749992500001 0.5846000015 0.02757499925
 O2 O 0.722424999 0.6653999985 0.222424999
 O2 O 0.722424999 0.5846000015 0.222424999
 O2 O 0.5275749992500001 0.6653999985 0.02757499925
 O2 O 0.5275749992500001 0.6653999985 0.222424999
 O2 O 0.722424999 0.5846000015 0.02757499925
 O2 O 0.722424999 0.6653999985 0.02757499925
 O2 O 0.5275749992500001 0.5846000015 0.222424999
 O3 O 0.5 0.57417500025 0.07417500025
 O3 O 0.5 0.57417500025 0.07417500025
 O3 O 0.5 0.67582499975 0.17582499975
 O3 O 0.5 0.67582499975 0.17582499975
 O3 O 0.5 0.67582499975 0.07417500025
 O3 O 0.5 0.67582499975 0.07417500025
 O3 O 0.5 0.57417500025 0.17582499975
 O3 O 0.5 0.57417500025 0.17582499975
 O3 O 0.57417500025 0.5 0.07417500025
 O3 O 0.57417500025 0.5 0.07417500025
 O3 O 0.67582499975 0.5 0.17582499975
 O3 O 0.67582499975 0.5 0.17582499975
 O3 O 0.57417500025 0.5 0.17582499975
 O3 O 0.57417500025 0.5 0.17582499975
 O3 O 0.67582499975 0.5 0.07417500025
 O3 O 0.67582499975 0.5 0.07417500025
 O3 O 0.57417500025 0.57417500025 0.0
 O3 O 0.57417500025 0.57417500025 0.0
 O3 O 0.67582499975 0.67582499975 0.0
 O3 O 0.67582499975 0.67582499975 0.0
 O3 O 0.67582499975 0.57417500025 0.0
 O3 O 0.67582499975 0.57417500025 0.0
 O3 O 0.57417500025 0.67582499975 0.0
 O3 O 0.57417500025 0.67582499975 0.0
 O2 O 0.722424999 0.5275749992500001 0.0846000015
 O2 O 0.52757498625 0.5275749992500001 0.0846000015
 O2 O 0.722424999 0.722424999 0.1653999985
 O2 O 0.52757498625 0.722424999 0.1653999985
 O2 O 0.722424999 0.722424999 0.0846000015
 O2 O 0.52757498625 0.722424999 0.0846000015
 O2 O 0.722424999 0.5275749992500001 0.1653999985
 O2 O 0.52757498625 0.5275749992500001 0.1653999985
 O2 O 0.5846000015 0.722424999 0.02757499925
 O2 O 0.5846000015 0.52757498625 0.02757499925
 O2 O 0.6653999985 0.722424999 0.222424999
 O2 O 0.6653999985 0.52757498625 0.222424999
 O2 O 0.5846000015 0.722424999 0.222424999
 O2 O 0.5846000015 0.52757498625 0.222424999
 O2 O 0.6653999985 0.722424999 0.02757499925
 O2 O 0.6653999985 0.52757498625 0.02757499925
 O2 O 0.5275749992500001 0.5846000015 0.222424999
 O2 O 0.5275749992500001 0.5846000015 0.02757498625
 O2 O 0.722424999 0.6653999985 0.222424999
 O2 O 0.722424999 0.6653999985 0.02757498625
 O2 O 0.722424999 0.5846000015 0.222424999
 O2 O 0.722424999 0.5846000015 0.02757498625
 O2 O 0.5275749992500001 0.6653999985 0.222424999
 O2 O 0.5275749992500001 0.6653999985 0.02757498625
 O2 O 0.5275749992500001 0.722424999 0.1653999985
 O2 O 0.5275749992500001 0.52757498625 0.1653999985
 O2 O 0.722424999 0.722424999 0.0846000015
 O2 O 0.722424999 0.52757498625 0.0846000015
 O2 O 0.722424999 0.722424999 0.1653999985
 O2 O 0.722424999 0.52757498625 0.1653999985
 O2 O 0.5275749992500001 0.722424999 0.0846000015
 O2 O 0.5275749992500001 0.52757498625 0.0846000015
 O2 O 0.722424999 0.5846000015 0.222424999
 O2 O 0.52757498625 0.5846000015 0.222424999
 O2 O 0.722424999 0.6653999985 0.02757499925
 O2 O 0.52757498625 0.6653999985 0.02757499925
 O2 O 0.722424999 0.5846000015 0.02757499925
 O2 O 0.52757498625 0.5846000015 0.02757499925
 O2 O 0.722424999 0.6653999985 0.222424999
 O2 O 0.52757498625 0.6653999985 0.222424999
 O2 O 0.5846000015 0.5275749992500001 0.222424999
 O2 O 0.5846000015 0.5275749992500001 0.02757498625
 O2 O 0.6653999985 0.722424999 0.222424999
 O2 O 0.6653999985 0.722424999 0.02757498625
 O2 O 0.5846000015 0.722424999 0.222424999
 O2 O 0.5846000015 0.722424999 0.02757498625
 O2 O 0.6653999985 0.5275749992500001 0.222424999
 O2 O 0.6653999985 0.5275749992500001 0.02757498625
 T1 Si 0.5 0.5455750002499999 0.09210000175
 T1 Si 0.5 0.5455750002499999 0.09210000175
 T1 Si 0.5 0.704425007 0.1579000055
 T1 Si 0.5 0.704425007 0.1579000055
 T1 Si 0.5 0.704425007 0.09210000175
 T1 Si 0.5 0.704425007 0.09210000175
 T1 Si 0.5 0.5455750002499999 0.1579000055
 T1 Si 0.5 0.5455750002499999 0.1579000055
 T1 Si 0.59210000175 0.5 0.04557500025
 T1 Si 0.59210000175 0.5 0.04557500025
 T1 Si 0.6579000054999999 0.5 0.204425007
 T1 Si 0.6579000054999999 0.5 0.204425007
 T1 Si 0.59210000175 0.5 0.204425007
 T1 Si 0.59210000175 0.5 0.204425007
 T1 Si 0.6579000054999999 0.5 0.04557500025
 T1 Si 0.6579000054999999 0.5 0.04557500025
 T1 Si 0.5455750002499999 0.59210000175 0.0
 T1 Si 0.5455750002499999 0.59210000175 0.0
 T1 Si 0.704425007 0.6579000054999999 0.0
 T1 Si 0.704425007 0.6579000054999999 0.0
 T1 Si 0.704425007 0.59210000175 0.0
 T1 Si 0.704425007 0.59210000175 0.0
 T1 Si 0.5455750002499999 0.6579000054999999 0.0
 T1 Si 0.5455750002499999 0.6579000054999999 0.0
 T1 Si 0.5455750002499999 0.5 0.1579000055
 T1 Si 0.5455750002499999 0.5 0.1579000055
 T1 Si 0.704425007 0.5 0.09210000175
 T1 Si 0.704425007 0.5 0.09210000175
 T1 Si 0.704425007 0.5 0.1579000055
 T1 Si 0.704425007 0.5 0.1579000055
 T1 Si 0.5455750002499999 0.5 0.09210000175
 T1 Si 0.5455750002499999 0.5 0.09210000175
 T1 Si 0.5 0.59210000175 0.204425007
 T1 Si 0.5 0.59210000175 0.204425007
 T1 Si 0.5 0.6579000054999999 0.04557500025
 T1 Si 0.5 0.6579000054999999 0.04557500025
 T1 Si 0.5 0.59210000175 0.04557500025
 T1 Si 0.5 0.59210000175 0.04557500025
 T1 Si 0.5 0.6579000054999999 0.204425007
 T1 Si 0.5 0.6579000054999999 0.204425007
 T1 Si 0.59210000175 0.5455750002499999 0.0
 T1 Si 0.59210000175 0.5455750002499999 0.0
 T1 Si 0.6579000054999999 0.704425007 0.0
 T1 Si 0.6579000054999999 0.704425007 0.0
 T1 Si 0.59210000175 0.704425007 0.0
 T1 Si 0.59210000175 0.704425007 0.0
 T1 Si 0.6579000054999999 0.5455750002499999 0.0
 T1 Si 0.6579000054999999 0.5455750002499999 0.0
 O1 O 0.75 0.5530500002500001 0.125
 O1 O 0.75 0.5530500002500001 0.125
 O1 O 0.75 0.6969500035 0.125
 O1 O 0.75 0.6969500035 0.125
 O1 O 0.875 0.5 0.05305000025
 O1 O 0.875 0.5 0.05305000025
 O1 O 0.875 0.5 0.1969500035
 O1 O 0.875 0.5 0.1969500035
 O1 O 0.8030500002500001 0.625 0.0
 O1 O 0.8030500002500001 0.625 0.0
 O1 O 0.9469500035 0.625 0.0
 O1 O 0.9469500035 0.625 0.0
 O1 O 0.8030500002500001 0.5 0.125
 O1 O 0.8030500002500001 0.5 0.125
 O1 O 0.9469500035 0.5 0.125
 O1 O 0.9469500035 0.5 0.125
 O1 O 0.75 0.625 0.1969500035
 O1 O 0.75 0.625 0.1969500035
 O1 O 0.75 0.625 0.05305000025
 O1 O 0.75 0.625 0.05305000025
 O1 O 0.875 0.5530500002500001 0.0
 O1 O 0.875 0.5530500002500001 0.0
 O1 O 0.875 0.6969500035 0.0
 O1 O 0.875 0.6969500035 0.0
 O2 O 0.7775749992500001 0.5275749992500001 0.0846000015
 O2 O 0.972424999 0.722424999 0.1653999985
 O2 O 0.972424999 0.722424999 0.0846000015
 O2 O 0.7775749992500001 0.5275749992500001 0.1653999985
 O2 O 0.972424999 0.5275749992500001 0.1653999985
 O2 O 0.7775749992500001 0.722424999 0.0846000015
 O2 O 0.7775749992500001 0.722424999 0.1653999985
 O2 O 0.972424999 0.5275749992500001 0.0846000015
 O2 O 0.8346000015 0.5275749992500001 0.02757499925
 O2 O 0.9153999985 0.722424999 0.222424999
 O2 O 0.8346000015 0.722424999 0.222424999
 O2 O 0.9153999985 0.5275749992500001 0.02757499925
 O2 O 0.9153999985 0.722424999 0.02757499925
 O2 O 0.8346000015 0.5275749992500001 0.222424999
 O2 O 0.9153999985 0.5275749992500001 0.222424999
 O2 O 0.8346000015 0.722424999 0.02757499925
 O2 O 0.7775749992500001 0.5846000015 0.02757499925
 O2 O 0.972424999 0.6653999985 0.222424999
 O2 O 0.972424999 0.5846000015 0.222424999
 O2 O 0.7775749992500001 0.6653999985 0.02757499925
 O2 O 0.7775749992500001 0.6653999985 0.222424999
 O2 O 0.972424999 0.5846000015 0.02757499925
 O2 O 0.972424999 0.6653999985 0.02757499925
 O2 O 0.7775749992500001 0.5846000015 0.222424999
 O3 O 0.75 0.57417500025 0.07417500025
 O3 O 0.75 0.57417500025 0.07417500025
 O3 O 0.75 0.67582499975 0.17582499975
 O3 O 0.75 0.67582499975 0.17582499975
 O3 O 0.75 0.67582499975 0.07417500025
 O3 O 0.75 0.67582499975 0.07417500025
 O3 O 0.75 0.57417500025 0.17582499975
 O3 O 0.75 0.57417500025 0.17582499975
 O3 O 0.82417500025 0.5 0.07417500025
 O3 O 0.82417500025 0.5 0.07417500025
 O3 O 0.92582499975 0.5 0.17582499975
 O3 O 0.92582499975 0.5 0.17582499975
 O3 O 0.82417500025 0.5 0.17582499975
 O3 O 0.82417500025 0.5 0.17582499975
 O3 O 0.92582499975 0.5 0.07417500025
 O3 O 0.92582499975 0.5 0.07417500025
 O3 O 0.82417500025 0.57417500025 0.0
 O3 O 0.82417500025 0.57417500025 0.0
 O3 O 0.92582499975 0.67582499975 0.0
 O3 O 0.92582499975 0.67582499975 0.0
 O3 O 0.92582499975 0.57417500025 0.0
 O3 O 0.92582499975 0.57417500025 0.0
 O3 O 0.82417500025 0.67582499975 0.0
 O3 O 0.82417500025 0.67582499975 0.0
 O2 O 0.972424999 0.5275749992500001 0.0846000015
 O2 O 0.77757498625 0.5275749992500001 0.0846000015
 O2 O 0.972424999 0.722424999 0.1653999985
 O2 O 0.77757498625 0.722424999 0.1653999985
 O2 O 0.972424999 0.722424999 0.0846000015
 O2 O 0.77757498625 0.722424999 0.0846000015
 O2 O 0.972424999 0.5275749992500001 0.1653999985
 O2 O 0.77757498625 0.5275749992500001 0.1653999985
 O2 O 0.8346000015 0.722424999 0.02757499925
 O2 O 0.8346000015 0.52757498625 0.02757499925
 O2 O 0.9153999985 0.722424999 0.222424999
 O2 O 0.9153999985 0.52757498625 0.222424999
 O2 O 0.8346000015 0.722424999 0.222424999
 O2 O 0.8346000015 0.52757498625 0.222424999
 O2 O 0.9153999985 0.722424999 0.02757499925
 O2 O 0.9153999985 0.52757498625 0.02757499925
 O2 O 0.7775749992500001 0.5846000015 0.222424999
 O2 O 0.7775749992500001 0.5846000015 0.02757498625
 O2 O 0.972424999 0.6653999985 0.222424999
 O2 O 0.972424999 0.6653999985 0.02757498625
 O2 O 0.972424999 0.5846000015 0.222424999
 O2 O 0.972424999 0.5846000015 0.02757498625
 O2 O 0.7775749992500001 0.6653999985 0.222424999
 O2 O 0.7775749992500001 0.6653999985 0.02757498625
 O2 O 0.7775749992500001 0.722424999 0.1653999985
 O2 O 0.7775749992500001 0.52757498625 0.1653999985
 O2 O 0.972424999 0.722424999 0.0846000015
 O2 O 0.972424999 0.52757498625 0.0846000015
 O2 O 0.972424999 0.722424999 0.1653999985
 O2 O 0.972424999 0.52757498625 0.1653999985
 O2 O 0.7775749992500001 0.722424999 0.0846000015
 O2 O 0.7775749992500001 0.52757498625 0.0846000015
 O2 O 0.972424999 0.5846000015 0.222424999
 O2 O 0.77757498625 0.5846000015 0.222424999
 O2 O 0.972424999 0.6653999985 0.02757499925
 O2 O 0.77757498625 0.6653999985 0.02757499925
 O2 O 0.972424999 0.5846000015 0.02757499925
 O2 O 0.77757498625 0.5846000015 0.02757499925
 O2 O 0.972424999 0.6653999985 0.222424999
 O2 O 0.77757498625 0.6653999985 0.222424999
 O2 O 0.8346000015 0.5275749992500001 0.222424999
 O2 O 0.8346000015 0.5275749992500001 0.02757498625
 O2 O 0.9153999985 0.722424999 0.222424999
 O2 O 0.9153999985 0.722424999 0.02757498625
 O2 O 0.8346000015 0.722424999 0.222424999
 O2 O 0.8346000015 0.722424999 0.02757498625
 O2 O 0.9153999985 0.5275749992500001 0.222424999
 O2 O 0.9153999985 0.5275749992500001 0.02757498625
 T1 Si 0.75 0.5455750002499999 0.09210000175
 T1 Si 0.75 0.5455750002499999 0.09210000175
 T1 Si 0.75 0.704425007 0.1579000055
 T1 Si 0.75 0.704425007 0.1579000055
 T1 Si 0.75 0.704425007 0.09210000175
 T1 Si 0.75 0.704425007 0.09210000175
 T1 Si 0.75 0.5455750002499999 0.1579000055
 T1 Si 0.75 0.5455750002499999 0.1579000055
 T1 Si 0.84210000175 0.5 0.04557500025
 T1 Si 0.84210000175 0.5 0.04557500025
 T1 Si 0.9079000054999999 0.5 0.204425007
 T1 Si 0.9079000054999999 0.5 0.204425007
 T1 Si 0.84210000175 0.5 0.204425007
 T1 Si 0.84210000175 0.5 0.204425007
 T1 Si 0.9079000054999999 0.5 0.04557500025
 T1 Si 0.9079000054999999 0.5 0.04557500025
 T1 Si 0.7955750002499999 0.59210000175 0.0
 T1 Si 0.7955750002499999 0.59210000175 0.0
 T1 Si 0.954425007 0.6579000054999999 0.0
 T1 Si 0.954425007 0.6579000054999999 0.0
 T1 Si 0.954425007 0.59210000175 0.0
 T1 Si 0.954425007 0.59210000175 0.0
 T1 Si 0.7955750002499999 0.6579000054999999 0.0
 T1 Si 0.7955750002499999 0.6579000054999999 0.0
 T1 Si 0.7955750002499999 0.5 0.1579000055
 T1 Si 0.7955750002499999 0.5 0.1579000055
 T1 Si 0.954425007 0.5 0.09210000175
 T1 Si 0.954425007 0.5 0.09210000175
 T1 Si 0.954425007 0.5 0.1579000055
 T1 Si 0.954425007 0.5 0.1579000055
 T1 Si 0.7955750002499999 0.5 0.09210000175
 T1 Si 0.7955750002499999 0.5 0.09210000175
 T1 Si 0.75 0.59210000175 0.204425007
 T1 Si 0.75 0.59210000175 0.204425007
 T1 Si 0.75 0.6579000054999999 0.04557500025
 T1 Si 0.75 0.6579000054999999 0.04557500025
 T1 Si 0.75 0.59210000175 0.04557500025
 T1 Si 0.75 0.59210000175 0.04557500025
 T1 Si 0.75 0.6579000054999999 0.204425007
 T1 Si 0.75 0.6579000054999999 0.204425007
 T1 Si 0.84210000175 0.5455750002499999 0.0
 T1 Si 0.84210000175 0.5455750002499999 0.0
 T1 Si 0.9079000054999999 0.704425007 0.0
 T1 Si 0.9079000054999999 0.704425007 0.0
 T1 Si 0.84210000175 0.704425007 0.0
 T1 Si 0.84210000175 0.704425007 0.0
 T1 Si 0.9079000054999999 0.5455750002499999 0.0
 T1 Si 0.9079000054999999 0.5455750002499999 0.0
 O1 O 0.0 0.8030500002500001 0.125
 O1 O 0.0 0.8030500002500001 0.125
 O1 O 0.0 0.9469500035 0.125
 O1 O 0.0 0.9469500035 0.125
 O1 O 0.125 0.75 0.05305000025
 O1 O 0.125 0.75 0.05305000025
 O1 O 0.125 0.75 0.1969500035
 O1 O 0.125 0.75 0.1969500035
 O1 O 0.05305000025 0.875 0.0
 O1 O 0.05305000025 0.875 0.0
 O1 O 0.1969500035 0.875 0.0
 O1 O 0.1969500035 0.875 0.0
 O1 O 0.05305000025 0.75 0.125
 O1 O 0.05305000025 0.75 0.125
 O1 O 0.1969500035 0.75 0.125
 O1 O 0.1969500035 0.75 0.125
 O1 O 0.0 0.875 0.1969500035
 O1 O 0.0 0.875 0.1969500035
 O1 O 0.0 0.875 0.05305000025
 O1 O 0.0 0.875 0.05305000025
 O1 O 0.125 0.8030500002500001 0.0
 O1 O 0.125 0.8030500002500001 0.0
 O1 O 0.125 0.9469500035 0.0
 O1 O 0.125 0.9469500035 0.0
 O2 O 0.02757499925 0.7775749992500001 0.0846000015
 O2 O 0.222424999 0.972424999 0.1653999985
 O2 O 0.222424999 0.972424999 0.0846000015
 O2 O 0.02757499925 0.7775749992500001 0.1653999985
 O2 O 0.222424999 0.7775749992500001 0.1653999985
 O2 O 0.02757499925 0.972424999 0.0846000015
 O2 O 0.02757499925 0.972424999 0.1653999985
 O2 O 0.222424999 0.7775749992500001 0.0846000015
 O2 O 0.0846000015 0.7775749992500001 0.02757499925
 O2 O 0.1653999985 0.972424999 0.222424999
 O2 O 0.0846000015 0.972424999 0.222424999
 O2 O 0.1653999985 0.7775749992500001 0.02757499925
 O2 O 0.1653999985 0.972424999 0.02757499925
 O2 O 0.0846000015 0.7775749992500001 0.222424999
 O2 O 0.1653999985 0.7775749992500001 0.222424999
 O2 O 0.0846000015 0.972424999 0.02757499925
 O2 O 0.02757499925 0.8346000015 0.02757499925
 O2 O 0.222424999 0.9153999985 0.222424999
 O2 O 0.222424999 0.8346000015 0.222424999
 O2 O 0.02757499925 0.9153999985 0.02757499925
 O2 O 0.02757499925 0.9153999985 0.222424999
 O2 O 0.222424999 0.8346000015 0.02757499925
 O2 O 0.222424999 0.9153999985 0.02757499925
 O2 O 0.02757499925 0.8346000015 0.222424999
 O3 O 0.0 0.82417500025 0.07417500025
 O3 O 0.0 0.82417500025 0.07417500025
 O3 O 0.0 0.92582499975 0.17582499975
 O3 O 0.0 0.92582499975 0.17582499975
 O3 O 0.0 0.92582499975 0.07417500025
 O3 O 0.0 0.92582499975 0.07417500025
 O3 O 0.0 0.82417500025 0.17582499975
 O3 O 0.0 0.82417500025 0.17582499975
 O3 O 0.07417500025 0.75 0.07417500025
 O3 O 0.07417500025 0.75 0.07417500025
 O3 O 0.17582499975 0.75 0.17582499975
 O3 O 0.17582499975 0.75 0.17582499975
 O3 O 0.07417500025 0.75 0.17582499975
 O3 O 0.07417500025 0.75 0.17582499975
 O3 O 0.17582499975 0.75 0.07417500025
 O3 O 0.17582499975 0.75 0.07417500025
 O3 O 0.07417500025 0.82417500025 0.0
 O3 O 0.07417500025 0.82417500025 0.0
 O3 O 0.17582499975 0.92582499975 0.0
 O3 O 0.17582499975 0.92582499975 0.0
 O3 O 0.17582499975 0.82417500025 0.0
 O3 O 0.17582499975 0.82417500025 0.0
 O3 O 0.07417500025 0.92582499975 0.0
 O3 O 0.07417500025 0.92582499975 0.0
 O2 O 0.222424999 0.7775749992500001 0.0846000015
 O2 O 0.02757498625 0.7775749992500001 0.0846000015
 O2 O 0.222424999 0.972424999 0.1653999985
 O2 O 0.02757498625 0.972424999 0.1653999985
 O2 O 0.222424999 0.972424999 0.0846000015
 O2 O 0.02757498625 0.972424999 0.0846000015
 O2 O 0.222424999 0.7775749992500001 0.1653999985
 O2 O 0.02757498625 0.7775749992500001 0.1653999985
 O2 O 0.0846000015 0.972424999 0.02757499925
 O2 O 0.0846000015 0.77757498625 0.02757499925
 O2 O 0.1653999985 0.972424999 0.222424999
 O2 O 0.1653999985 0.77757498625 0.222424999
 O2 O 0.0846000015 0.972424999 0.222424999
 O2 O 0.0846000015 0.77757498625 0.222424999
 O2 O 0.1653999985 0.972424999 0.02757499925
 O2 O 0.1653999985 0.77757498625 0.02757499925
 O2 O 0.02757499925 0.8346000015 0.222424999
 O2 O 0.02757499925 0.8346000015 0.02757498625
 O2 O 0.222424999 0.9153999985 0.222424999
 O2 O 0.222424999 0.9153999985 0.02757498625
 O2 O 0.222424999 0.8346000015 0.222424999
 O2 O 0.222424999 0.8346000015 0.02757498625
 O2 O 0.02757499925 0.9153999985 0.222424999
 O2 O 0.02757499925 0.9153999985 0.02757498625
 O2 O 0.02757499925 0.972424999 0.1653999985
 O2 O 0.02757499925 0.77757498625 0.1653999985
 O2 O 0.222424999 0.972424999 0.0846000015
 O2 O 0.222424999 0.77757498625 0.0846000015
 O2 O 0.222424999 0.972424999 0.1653999985
 O2 O 0.222424999 0.77757498625 0.1653999985
 O2 O 0.02757499925 0.972424999 0.0846000015
 O2 O 0.02757499925 0.77757498625 0.0846000015
 O2 O 0.222424999 0.8346000015 0.222424999
 O2 O 0.02757498625 0.8346000015 0.222424999
 O2 O 0.222424999 0.9153999985 0.02757499925
 O2 O 0.02757498625 0.9153999985 0.02757499925
 O2 O 0.222424999 0.8346000015 0.02757499925
 O2 O 0.02757498625 0.8346000015 0.02757499925
 O2 O 0.222424999 0.9153999985 0.222424999
 O2 O 0.02757498625 0.9153999985 0.222424999
 O2 O 0.0846000015 0.7775749992500001 0.222424999
 O2 O 0.0846000015 0.7775749992500001 0.02757498625
 O2 O 0.1653999985 0.972424999 0.222424999
 O2 O 0.1653999985 0.972424999 0.02757498625
 O2 O 0.0846000015 0.972424999 0.222424999
 O2 O 0.0846000015 0.972424999 0.02757498625
 O2 O 0.1653999985 0.7775749992500001 0.222424999
 O2 O 0.1653999985 0.7775749992500001 0.02757498625
 T1 Si 0.0 0.7955750002499999 0.09210000175
 T1 Si 0.0 0.7955750002499999 0.09210000175
 T1 Si 0.0 0.954425007 0.1579000055
 T1 Si 0.0 0.954425007 0.1579000055
 T1 Si 0.0 0.954425007 0.09210000175
 T1 Si 0.0 0.954425007 0.09210000175
 T1 Si 0.0 0.7955750002499999 0.1579000055
 T1 Si 0.0 0.7955750002499999 0.1579000055
 T1 Si 0.09210000175 0.75 0.04557500025
 T1 Si 0.09210000175 0.75 0.04557500025
 T1 Si 0.1579000055 0.75 0.204425007
 T1 Si 0.1579000055 0.75 0.204425007
 T1 Si 0.09210000175 0.75 0.204425007
 T1 Si 0.09210000175 0.75 0.204425007
 T1 Si 0.1579000055 0.75 0.04557500025
 T1 Si 0.1579000055 0.75 0.04557500025
 T1 Si 0.04557500025 0.84210000175 0.0
 T1 Si 0.04557500025 0.84210000175 0.0
 T1 Si 0.204425007 0.9079000054999999 0.0
 T1 Si 0.204425007 0.9079000054999999 0.0
 T1 Si 0.204425007 0.84210000175 0.0
 T1 Si 0.204425007 0.84210000175 0.0
 T1 Si 0.04557500025 0.9079000054999999 0.0
 T1 Si 0.04557500025 0.9079000054999999 0.0
 T1 Si 0.04557500025 0.75 0.1579000055
 T1 Si 0.04557500025 0.75 0.1579000055
 T1 Si 0.204425007 0.75 0.09210000175
 T1 Si 0.204425007 0.75 0.09210000175
 T1 Si 0.204425007 0.75 0.1579000055
 T1 Si 0.204425007 0.75 0.1579000055
 T1 Si 0.04557500025 0.75 0.09210000175
 T1 Si 0.04557500025 0.75 0.09210000175
 T1 Si 0.0 0.84210000175 0.204425007
 T1 Si 0.0 0.84210000175 0.204425007
 T1 Si 0.0 0.9079000054999999 0.04557500025
 T1 Si 0.0 0.9079000054999999 0.04557500025
 T1 Si 0.0 0.84210000175 0.04557500025
 T1 Si 0.0 0.84210000175 0.04557500025
 T1 Si 0.0 0.9079000054999999 0.204425007
 T1 Si 0.0 0.9079000054999999 0.204425007
 T1 Si 0.09210000175 0.7955750002499999 0.0
 T1 Si 0.09210000175 0.7955750002499999 0.0
 T1 Si 0.1579000055 0.954425007 0.0
 T1 Si 0.1579000055 0.954425007 0.0
 T1 Si 0.09210000175 0.954425007 0.0
 T1 Si 0.09210000175 0.954425007 0.0
 T1 Si 0.1579000055 0.7955750002499999 0.0
 T1 Si 0.1579000055 0.7955750002499999 0.0
 O1 O 0.25 0.8030500002500001 0.125
 O1 O 0.25 0.8030500002500001 0.125
 O1 O 0.25 0.9469500035 0.125
 O1 O 0.25 0.9469500035 0.125
 O1 O 0.375 0.75 0.05305000025
 O1 O 0.375 0.75 0.05305000025
 O1 O 0.375 0.75 0.1969500035
 O1 O 0.375 0.75 0.1969500035
 O1 O 0.30305000025 0.875 0.0
 O1 O 0.30305000025 0.875 0.0
 O1 O 0.4469500035 0.875 0.0
 O1 O 0.4469500035 0.875 0.0
 O1 O 0.30305000025 0.75 0.125
 O1 O 0.30305000025 0.75 0.125
 O1 O 0.4469500035 0.75 0.125
 O1 O 0.4469500035 0.75 0.125
 O1 O 0.25 0.875 0.1969500035
 O1 O 0.25 0.875 0.1969500035
 O1 O 0.25 0.875 0.05305000025
 O1 O 0.25 0.875 0.05305000025
 O1 O 0.375 0.8030500002500001 0.0
 O1 O 0.375 0.8030500002500001 0.0
 O1 O 0.375 0.9469500035 0.0
 O1 O 0.375 0.9469500035 0.0
 O2 O 0.27757499925 0.7775749992500001 0.0846000015
 O2 O 0.472424999 0.972424999 0.1653999985
 O2 O 0.472424999 0.972424999 0.0846000015
 O2 O 0.27757499925 0.7775749992500001 0.1653999985
 O2 O 0.472424999 0.7775749992500001 0.1653999985
 O2 O 0.27757499925 0.972424999 0.0846000015
 O2 O 0.27757499925 0.972424999 0.1653999985
 O2 O 0.472424999 0.7775749992500001 0.0846000015
 O2 O 0.3346000015 0.7775749992500001 0.02757499925
 O2 O 0.4153999985 0.972424999 0.222424999
 O2 O 0.3346000015 0.972424999 0.222424999
 O2 O 0.4153999985 0.7775749992500001 0.02757499925
 O2 O 0.4153999985 0.972424999 0.02757499925
 O2 O 0.3346000015 0.7775749992500001 0.222424999
 O2 O 0.4153999985 0.7775749992500001 0.222424999
 O2 O 0.3346000015 0.972424999 0.02757499925
 O2 O 0.27757499925 0.8346000015 0.02757499925
 O2 O 0.472424999 0.9153999985 0.222424999
 O2 O 0.472424999 0.8346000015 0.222424999
 O2 O 0.27757499925 0.9153999985 0.02757499925
 O2 O 0.27757499925 0.9153999985 0.222424999
 O2 O 0.472424999 0.8346000015 0.02757499925
 O2 O 0.472424999 0.9153999985 0.02757499925
 O2 O 0.27757499925 0.8346000015 0.222424999
 O3 O 0.25 0.82417500025 0.07417500025
 O3 O 0.25 0.82417500025 0.07417500025
 O3 O 0.25 0.92582499975 0.17582499975
 O3 O 0.25 0.92582499975 0.17582499975
 O3 O 0.25 0.92582499975 0.07417500025
 O3 O 0.25 0.92582499975 0.07417500025
 O3 O 0.25 0.82417500025 0.17582499975
 O3 O 0.25 0.82417500025 0.17582499975
 O3 O 0.32417500025 0.75 0.07417500025
 O3 O 0.32417500025 0.75 0.07417500025
 O3 O 0.42582499975 0.75 0.17582499975
 O3 O 0.42582499975 0.75 0.17582499975
 O3 O 0.32417500025 0.75 0.17582499975
 O3 O 0.32417500025 0.75 0.17582499975
 O3 O 0.42582499975 0.75 0.07417500025
 O3 O 0.42582499975 0.75 0.07417500025
 O3 O 0.32417500025 0.82417500025 0.0
 O3 O 0.32417500025 0.82417500025 0.0
 O3 O 0.42582499975 0.92582499975 0.0
 O3 O 0.42582499975 0.92582499975 0.0
 O3 O 0.42582499975 0.82417500025 0.0
 O3 O 0.42582499975 0.82417500025 0.0
 O3 O 0.32417500025 0.92582499975 0.0
 O3 O 0.32417500025 0.92582499975 0.0
 O2 O 0.472424999 0.7775749992500001 0.0846000015
 O2 O 0.27757498625 0.7775749992500001 0.0846000015
 O2 O 0.472424999 0.972424999 0.1653999985
 O2 O 0.27757498625 0.972424999 0.1653999985
 O2 O 0.472424999 0.972424999 0.0846000015
 O2 O 0.27757498625 0.972424999 0.0846000015
 O2 O 0.472424999 0.7775749992500001 0.1653999985
 O2 O 0.27757498625 0.7775749992500001 0.1653999985
 O2 O 0.3346000015 0.972424999 0.02757499925
 O2 O 0.3346000015 0.77757498625 0.02757499925
 O2 O 0.4153999985 0.972424999 0.222424999
 O2 O 0.4153999985 0.77757498625 0.222424999
 O2 O 0.3346000015 0.972424999 0.222424999
 O2 O 0.3346000015 0.77757498625 0.222424999
 O2 O 0.4153999985 0.972424999 0.02757499925
 O2 O 0.4153999985 0.77757498625 0.02757499925
 O2 O 0.27757499925 0.8346000015 0.222424999
 O2 O 0.27757499925 0.8346000015 0.02757498625
 O2 O 0.472424999 0.9153999985 0.222424999
 O2 O 0.472424999 0.9153999985 0.02757498625
 O2 O 0.472424999 0.8346000015 0.222424999
 O2 O 0.472424999 0.8346000015 0.02757498625
 O2 O 0.27757499925 0.9153999985 0.222424999
 O2 O 0.27757499925 0.9153999985 0.02757498625
 O2 O 0.27757499925 0.972424999 0.1653999985
 O2 O 0.27757499925 0.77757498625 0.1653999985
 O2 O 0.472424999 0.972424999 0.0846000015
 O2 O 0.472424999 0.77757498625 0.0846000015
 O2 O 0.472424999 0.972424999 0.1653999985
 O2 O 0.472424999 0.77757498625 0.1653999985
 O2 O 0.27757499925 0.972424999 0.0846000015
 O2 O 0.27757499925 0.77757498625 0.0846000015
 O2 O 0.472424999 0.8346000015 0.222424999
 O2 O 0.27757498625 0.8346000015 0.222424999
 O2 O 0.472424999 0.9153999985 0.02757499925
 O2 O 0.27757498625 0.9153999985 0.02757499925
 O2 O 0.472424999 0.8346000015 0.02757499925
 O2 O 0.27757498625 0.8346000015 0.02757499925
 O2 O 0.472424999 0.9153999985 0.222424999
 O2 O 0.27757498625 0.9153999985 0.222424999
 O2 O 0.3346000015 0.7775749992500001 0.222424999
 O2 O 0.3346000015 0.7775749992500001 0.02757498625
 O2 O 0.4153999985 0.972424999 0.222424999
 O2 O 0.4153999985 0.972424999 0.02757498625
 O2 O 0.3346000015 0.972424999 0.222424999
 O2 O 0.3346000015 0.972424999 0.02757498625
 O2 O 0.4153999985 0.7775749992500001 0.222424999
 O2 O 0.4153999985 0.7775749992500001 0.02757498625
 T1 Si 0.25 0.7955750002499999 0.09210000175
 T1 Si 0.25 0.7955750002499999 0.09210000175
 T1 Si 0.25 0.954425007 0.1579000055
 T1 Si 0.25 0.954425007 0.1579000055
 T1 Si 0.25 0.954425007 0.09210000175
 T1 Si 0.25 0.954425007 0.09210000175
 T1 Si 0.25 0.7955750002499999 0.1579000055
 T1 Si 0.25 0.7955750002499999 0.1579000055
 T1 Si 0.34210000175 0.75 0.04557500025
 T1 Si 0.34210000175 0.75 0.04557500025
 T1 Si 0.4079000055 0.75 0.204425007
 T1 Si 0.4079000055 0.75 0.204425007
 T1 Si 0.34210000175 0.75 0.204425007
 T1 Si 0.34210000175 0.75 0.204425007
 T1 Si 0.4079000055 0.75 0.04557500025
 T1 Si 0.4079000055 0.75 0.04557500025
 T1 Si 0.29557500025 0.84210000175 0.0
 T1 Si 0.29557500025 0.84210000175 0.0
 T1 Si 0.454425007 0.9079000054999999 0.0
 T1 Si 0.454425007 0.9079000054999999 0.0
 T1 Si 0.454425007 0.84210000175 0.0
 T1 Si 0.454425007 0.84210000175 0.0
 T1 Si 0.29557500025 0.9079000054999999 0.0
 T1 Si 0.29557500025 0.9079000054999999 0.0
 T1 Si 0.29557500025 0.75 0.1579000055
 T1 Si 0.29557500025 0.75 0.1579000055
 T1 Si 0.454425007 0.75 0.09210000175
 T1 Si 0.454425007 0.75 0.09210000175
 T1 Si 0.454425007 0.75 0.1579000055
 T1 Si 0.454425007 0.75 0.1579000055
 T1 Si 0.29557500025 0.75 0.09210000175
 T1 Si 0.29557500025 0.75 0.09210000175
 T1 Si 0.25 0.84210000175 0.204425007
 T1 Si 0.25 0.84210000175 0.204425007
 T1 Si 0.25 0.9079000054999999 0.04557500025
 T1 Si 0.25 0.9079000054999999 0.04557500025
 T1 Si 0.25 0.84210000175 0.04557500025
 T1 Si 0.25 0.84210000175 0.04557500025
 T1 Si 0.25 0.9079000054999999 0.204425007
 T1 Si 0.25 0.9079000054999999 0.204425007
 T1 Si 0.34210000175 0.7955750002499999 0.0
 T1 Si 0.34210000175 0.7955750002499999 0.0
 T1 Si 0.4079000055 0.954425007 0.0
 T1 Si 0.4079000055 0.954425007 0.0
 T1 Si 0.34210000175 0.954425007 0.0
 T1 Si 0.34210000175 0.954425007 0.0
 T1 Si 0.4079000055 0.7955750002499999 0.0
 T1 Si 0.4079000055 0.7955750002499999 0.0
 O1 O 0.5 0.8030500002500001 0.125
 O1 O 0.5 0.8030500002500001 0.125
 O1 O 0.5 0.9469500035 0.125
 O1 O 0.5 0.9469500035 0.125
 O1 O 0.625 0.75 0.05305000025
 O1 O 0.625 0.75 0.05305000025
 O1 O 0.625 0.75 0.1969500035
 O1 O 0.625 0.75 0.1969500035
 O1 O 0.5530500002500001 0.875 0.0
 O1 O 0.5530500002500001 0.875 0.0
 O1 O 0.6969500035 0.875 0.0
 O1 O 0.6969500035 0.875 0.0
 O1 O 0.5530500002500001 0.75 0.125
 O1 O 0.5530500002500001 0.75 0.125
 O1 O 0.6969500035 0.75 0.125
 O1 O 0.6969500035 0.75 0.125
 O1 O 0.5 0.875 0.1969500035
 O1 O 0.5 0.875 0.1969500035
 O1 O 0.5 0.875 0.05305000025
 O1 O 0.5 0.875 0.05305000025
 O1 O 0.625 0.8030500002500001 0.0
 O1 O 0.625 0.8030500002500001 0.0
 O1 O 0.625 0.9469500035 0.0
 O1 O 0.625 0.9469500035 0.0
 O2 O 0.5275749992500001 0.7775749992500001 0.0846000015
 O2 O 0.722424999 0.972424999 0.1653999985
 O2 O 0.722424999 0.972424999 0.0846000015
 O2 O 0.5275749992500001 0.7775749992500001 0.1653999985
 O2 O 0.722424999 0.7775749992500001 0.1653999985
 O2 O 0.5275749992500001 0.972424999 0.0846000015
 O2 O 0.5275749992500001 0.972424999 0.1653999985
 O2 O 0.722424999 0.7775749992500001 0.0846000015
 O2 O 0.5846000015 0.7775749992500001 0.02757499925
 O2 O 0.6653999985 0.972424999 0.222424999
 O2 O 0.5846000015 0.972424999 0.222424999
 O2 O 0.6653999985 0.7775749992500001 0.02757499925
 O2 O 0.6653999985 0.972424999 0.02757499925
 O2 O 0.5846000015 0.7775749992500001 0.222424999
 O2 O 0.6653999985 0.7775749992500001 0.222424999
 O2 O 0.5846000015 0.972424999 0.02757499925
 O2 O 0.5275749992500001 0.8346000015 0.02757499925
 O2 O 0.722424999 0.9153999985 0.222424999
 O2 O 0.722424999 0.8346000015 0.222424999
 O2 O 0.5275749992500001 0.9153999985 0.02757499925
 O2 O 0.5275749992500001 0.9153999985 0.222424999
 O2 O 0.722424999 0.8346000015 0.02757499925
 O2 O 0.722424999 0.9153999985 0.02757499925
 O2 O 0.5275749992500001 0.8346000015 0.222424999
 O3 O 0.5 0.82417500025 0.07417500025
 O3 O 0.5 0.82417500025 0.07417500025
 O3 O 0.5 0.92582499975 0.17582499975
 O3 O 0.5 0.92582499975 0.17582499975
 O3 O 0.5 0.92582499975 0.07417500025
 O3 O 0.5 0.92582499975 0.07417500025
 O3 O 0.5 0.82417500025 0.17582499975
 O3 O 0.5 0.82417500025 0.17582499975
 O3 O 0.57417500025 0.75 0.07417500025
 O3 O 0.57417500025 0.75 0.07417500025
 O3 O 0.67582499975 0.75 0.17582499975
 O3 O 0.67582499975 0.75 0.17582499975
 O3 O 0.57417500025 0.75 0.17582499975
 O3 O 0.57417500025 0.75 0.17582499975
 O3 O 0.67582499975 0.75 0.07417500025
 O3 O 0.67582499975 0.75 0.07417500025
 O3 O 0.57417500025 0.82417500025 0.0
 O3 O 0.57417500025 0.82417500025 0.0
 O3 O 0.67582499975 0.92582499975 0.0
 O3 O 0.67582499975 0.92582499975 0.0
 O3 O 0.67582499975 0.82417500025 0.0
 O3 O 0.67582499975 0.82417500025 0.0
 O3 O 0.57417500025 0.92582499975 0.0
 O3 O 0.57417500025 0.92582499975 0.0
 O2 O 0.722424999 0.7775749992500001 0.0846000015
 O2 O 0.52757498625 0.7775749992500001 0.0846000015
 O2 O 0.722424999 0.972424999 0.1653999985
 O2 O 0.52757498625 0.972424999 0.1653999985
 O2 O 0.722424999 0.972424999 0.0846000015
 O2 O 0.52757498625 0.972424999 0.0846000015
 O2 O 0.722424999 0.7775749992500001 0.1653999985
 O2 O 0.52757498625 0.7775749992500001 0.1653999985
 O2 O 0.5846000015 0.972424999 0.02757499925
 O2 O 0.5846000015 0.77757498625 0.02757499925
 O2 O 0.6653999985 0.972424999 0.222424999
 O2 O 0.6653999985 0.77757498625 0.222424999
 O2 O 0.5846000015 0.972424999 0.222424999
 O2 O 0.5846000015 0.77757498625 0.222424999
 O2 O 0.6653999985 0.972424999 0.02757499925
 O2 O 0.6653999985 0.77757498625 0.02757499925
 O2 O 0.5275749992500001 0.8346000015 0.222424999
 O2 O 0.5275749992500001 0.8346000015 0.02757498625
 O2 O 0.722424999 0.9153999985 0.222424999
 O2 O 0.722424999 0.9153999985 0.02757498625
 O2 O 0.722424999 0.8346000015 0.222424999
 O2 O 0.722424999 0.8346000015 0.02757498625
 O2 O 0.5275749992500001 0.9153999985 0.222424999
 O2 O 0.5275749992500001 0.9153999985 0.02757498625
 O2 O 0.5275749992500001 0.972424999 0.1653999985
 O2 O 0.5275749992500001 0.77757498625 0.1653999985
 O2 O 0.722424999 0.972424999 0.0846000015
 O2 O 0.722424999 0.77757498625 0.0846000015
 O2 O 0.722424999 0.972424999 0.1653999985
 O2 O 0.722424999 0.77757498625 0.1653999985
 O2 O 0.5275749992500001 0.972424999 0.0846000015
 O2 O 0.5275749992500001 0.77757498625 0.0846000015
 O2 O 0.722424999 0.8346000015 0.222424999
 O2 O 0.52757498625 0.8346000015 0.222424999
 O2 O 0.722424999 0.9153999985 0.02757499925
 O2 O 0.52757498625 0.9153999985 0.02757499925
 O2 O 0.722424999 0.8346000015 0.02757499925
 O2 O 0.52757498625 0.8346000015 0.02757499925
 O2 O 0.722424999 0.9153999985 0.222424999
 O2 O 0.52757498625 0.9153999985 0.222424999
 O2 O 0.5846000015 0.7775749992500001 0.222424999
 O2 O 0.5846000015 0.7775749992500001 0.02757498625
 O2 O 0.6653999985 0.972424999 0.222424999
 O2 O 0.6653999985 0.972424999 0.02757498625
 O2 O 0.5846000015 0.972424999 0.222424999
 O2 O 0.5846000015 0.972424999 0.02757498625
 O2 O 0.6653999985 0.7775749992500001 0.222424999
 O2 O 0.6653999985 0.7775749992500001 0.02757498625
 T1 Si 0.5 0.7955750002499999 0.09210000175
 T1 Si 0.5 0.7955750002499999 0.09210000175
 T1 Si 0.5 0.954425007 0.1579000055
 T1 Si 0.5 0.954425007 0.1579000055
 T1 Si 0.5 0.954425007 0.09210000175
 T1 Si 0.5 0.954425007 0.09210000175
 T1 Si 0.5 0.7955750002499999 0.1579000055
 T1 Si 0.5 0.7955750002499999 0.1579000055
 T1 Si 0.59210000175 0.75 0.04557500025
 T1 Si 0.59210000175 0.75 0.04557500025
 T1 Si 0.6579000054999999 0.75 0.204425007
 T1 Si 0.6579000054999999 0.75 0.204425007
 T1 Si 0.59210000175 0.75 0.204425007
 T1 Si 0.59210000175 0.75 0.204425007
 T1 Si 0.6579000054999999 0.75 0.04557500025
 T1 Si 0.6579000054999999 0.75 0.04557500025
 T1 Si 0.5455750002499999 0.84210000175 0.0
 T1 Si 0.5455750002499999 0.84210000175 0.0
 T1 Si 0.704425007 0.9079000054999999 0.0
 T1 Si 0.704425007 0.9079000054999999 0.0
 T1 Si 0.704425007 0.84210000175 0.0
 T1 Si 0.704425007 0.84210000175 0.0
 T1 Si 0.5455750002499999 0.9079000054999999 0.0
 T1 Si 0.5455750002499999 0.9079000054999999 0.0
 T1 Si 0.5455750002499999 0.75 0.1579000055
 T1 Si 0.5455750002499999 0.75 0.1579000055
 T1 Si 0.704425007 0.75 0.09210000175
 T1 Si 0.704425007 0.75 0.09210000175
 T1 Si 0.704425007 0.75 0.1579000055
 T1 Si 0.704425007 0.75 0.1579000055
 T1 Si 0.5455750002499999 0.75 0.09210000175
 T1 Si 0.5455750002499999 0.75 0.09210000175
 T1 Si 0.5 0.84210000175 0.204425007
 T1 Si 0.5 0.84210000175 0.204425007
 T1 Si 0.5 0.9079000054999999 0.04557500025
 T1 Si 0.5 0.9079000054999999 0.04557500025
 T1 Si 0.5 0.84210000175 0.04557500025
 T1 Si 0.5 0.84210000175 0.04557500025
 T1 Si 0.5 0.9079000054999999 0.204425007
 T1 Si 0.5 0.9079000054999999 0.204425007
 T1 Si 0.59210000175 0.7955750002499999 0.0
 T1 Si 0.59210000175 0.7955750002499999 0.0
 T1 Si 0.6579000054999999 0.954425007 0.0
 T1 Si 0.6579000054999999 0.954425007 0.0
 T1 Si 0.59210000175 0.954425007 0.0
 T1 Si 0.59210000175 0.954425007 0.0
 T1 Si 0.6579000054999999 0.7955750002499999 0.0
 T1 Si 0.6579000054999999 0.7955750002499999 0.0
 O1 O 0.75 0.8030500002500001 0.125
 O1 O 0.75 0.8030500002500001 0.125
 O1 O 0.75 0.9469500035 0.125
 O1 O 0.75 0.9469500035 0.125
 O1 O 0.875 0.75 0.05305000025
 O1 O 0.875 0.75 0.05305000025
 O1 O 0.875 0.75 0.1969500035
 O1 O 0.875 0.75 0.1969500035
 O1 O 0.8030500002500001 0.875 0.0
 O1 O 0.8030500002500001 0.875 0.0
 O1 O 0.9469500035 0.875 0.0
 O1 O 0.9469500035 0.875 0.0
 O1 O 0.8030500002500001 0.75 0.125
 O1 O 0.8030500002500001 0.75 0.125
 O1 O 0.9469500035 0.75 0.125
 O1 O 0.9469500035 0.75 0.125
 O1 O 0.75 0.875 0.1969500035
 O1 O 0.75 0.875 0.1969500035
 O1 O 0.75 0.875 0.05305000025
 O1 O 0.75 0.875 0.05305000025
 O1 O 0.875 0.8030500002500001 0.0
 O1 O 0.875 0.8030500002500001 0.0
 O1 O 0.875 0.9469500035 0.0
 O1 O 0.875 0.9469500035 0.0
 O2 O 0.7775749992500001 0.7775749992500001 0.0846000015
 O2 O 0.972424999 0.972424999 0.1653999985
 O2 O 0.972424999 0.972424999 0.0846000015
 O2 O 0.7775749992500001 0.7775749992500001 0.1653999985
 O2 O 0.972424999 0.7775749992500001 0.1653999985
 O2 O 0.7775749992500001 0.972424999 0.0846000015
 O2 O 0.7775749992500001 0.972424999 0.1653999985
 O2 O 0.972424999 0.7775749992500001 0.0846000015
 O2 O 0.8346000015 0.7775749992500001 0.02757499925
 O2 O 0.9153999985 0.972424999 0.222424999
 O2 O 0.8346000015 0.972424999 0.222424999
 O2 O 0.9153999985 0.7775749992500001 0.02757499925
 O2 O 0.9153999985 0.972424999 0.02757499925
 O2 O 0.8346000015 0.7775749992500001 0.222424999
 O2 O 0.9153999985 0.7775749992500001 0.222424999
 O2 O 0.8346000015 0.972424999 0.02757499925
 O2 O 0.7775749992500001 0.8346000015 0.02757499925
 O2 O 0.972424999 0.9153999985 0.222424999
 O2 O 0.972424999 0.8346000015 0.222424999
 O2 O 0.7775749992500001 0.9153999985 0.02757499925
 O2 O 0.7775749992500001 0.9153999985 0.222424999
 O2 O 0.972424999 0.8346000015 0.02757499925
 O2 O 0.972424999 0.9153999985 0.02757499925
 O2 O 0.7775749992500001 0.8346000015 0.222424999
 O3 O 0.75 0.82417500025 0.07417500025
 O3 O 0.75 0.82417500025 0.07417500025
 O3 O 0.75 0.92582499975 0.17582499975
 O3 O 0.75 0.92582499975 0.17582499975
 O3 O 0.75 0.92582499975 0.07417500025
 O3 O 0.75 0.92582499975 0.07417500025
 O3 O 0.75 0.82417500025 0.17582499975
 O3 O 0.75 0.82417500025 0.17582499975
 O3 O 0.82417500025 0.75 0.07417500025
 O3 O 0.82417500025 0.75 0.07417500025
 O3 O 0.92582499975 0.75 0.17582499975
 O3 O 0.92582499975 0.75 0.17582499975
 O3 O 0.82417500025 0.75 0.17582499975
 O3 O 0.82417500025 0.75 0.17582499975
 O3 O 0.92582499975 0.75 0.07417500025
 O3 O 0.92582499975 0.75 0.07417500025
 O3 O 0.82417500025 0.82417500025 0.0
 O3 O 0.82417500025 0.82417500025 0.0
 O3 O 0.92582499975 0.92582499975 0.0
 O3 O 0.92582499975 0.92582499975 0.0
 O3 O 0.92582499975 0.82417500025 0.0
 O3 O 0.92582499975 0.82417500025 0.0
 O3 O 0.82417500025 0.92582499975 0.0
 O3 O 0.82417500025 0.92582499975 0.0
 O2 O 0.972424999 0.7775749992500001 0.0846000015
 O2 O 0.77757498625 0.7775749992500001 0.0846000015
 O2 O 0.972424999 0.972424999 0.1653999985
 O2 O 0.77757498625 0.972424999 0.1653999985
 O2 O 0.972424999 0.972424999 0.0846000015
 O2 O 0.77757498625 0.972424999 0.0846000015
 O2 O 0.972424999 0.7775749992500001 0.1653999985
 O2 O 0.77757498625 0.7775749992500001 0.1653999985
 O2 O 0.8346000015 0.972424999 0.02757499925
 O2 O 0.8346000015 0.77757498625 0.02757499925
 O2 O 0.9153999985 0.972424999 0.222424999
 O2 O 0.9153999985 0.77757498625 0.222424999
 O2 O 0.8346000015 0.972424999 0.222424999
 O2 O 0.8346000015 0.77757498625 0.222424999
 O2 O 0.9153999985 0.972424999 0.02757499925
 O2 O 0.9153999985 0.77757498625 0.02757499925
 O2 O 0.7775749992500001 0.8346000015 0.222424999
 O2 O 0.7775749992500001 0.8346000015 0.02757498625
 O2 O 0.972424999 0.9153999985 0.222424999
 O2 O 0.972424999 0.9153999985 0.02757498625
 O2 O 0.972424999 0.8346000015 0.222424999
 O2 O 0.972424999 0.8346000015 0.02757498625
 O2 O 0.7775749992500001 0.9153999985 0.222424999
 O2 O 0.7775749992500001 0.9153999985 0.02757498625
 O2 O 0.7775749992500001 0.972424999 0.1653999985
 O2 O 0.7775749992500001 0.77757498625 0.1653999985
 O2 O 0.972424999 0.972424999 0.0846000015
 O2 O 0.972424999 0.77757498625 0.0846000015
 O2 O 0.972424999 0.972424999 0.1653999985
 O2 O 0.972424999 0.77757498625 0.1653999985
 O2 O 0.7775749992500001 0.972424999 0.0846000015
 O2 O 0.7775749992500001 0.77757498625 0.0846000015
 O2 O 0.972424999 0.8346000015 0.222424999
 O2 O 0.77757498625 0.8346000015 0.222424999
 O2 O 0.972424999 0.9153999985 0.02757499925
 O2 O 0.77757498625 0.9153999985 0.02757499925
 O2 O 0.972424999 0.8346000015 0.02757499925
 O2 O 0.77757498625 0.8346000015 0.02757499925
 O2 O 0.972424999 0.9153999985 0.222424999
 O2 O 0.77757498625 0.9153999985 0.222424999
 O2 O 0.8346000015 0.7775749992500001 0.222424999
 O2 O 0.8346000015 0.7775749992500001 0.02757498625
 O2 O 0.9153999985 0.972424999 0.222424999
 O2 O 0.9153999985 0.972424999 0.02757498625
 O2 O 0.8346000015 0.972424999 0.222424999
 O2 O 0.8346000015 0.972424999 0.02757498625
 O2 O 0.9153999985 0.7775749992500001 0.222424999
 O2 O 0.9153999985 0.7775749992500001 0.02757498625
 T1 Si 0.75 0.7955750002499999 0.09210000175
 T1 Si 0.75 0.7955750002499999 0.09210000175
 T1 Si 0.75 0.954425007 0.1579000055
 T1 Si 0.75 0.954425007 0.1579000055
 T1 Si 0.75 0.954425007 0.09210000175
 T1 Si 0.75 0.954425007 0.09210000175
 T1 Si 0.75 0.7955750002499999 0.1579000055
 T1 Si 0.75 0.7955750002499999 0.1579000055
 T1 Si 0.84210000175 0.75 0.04557500025
 T1 Si 0.84210000175 0.75 0.04557500025
 T1 Si 0.9079000054999999 0.75 0.204425007
 T1 Si 0.9079000054999999 0.75 0.204425007
 T1 Si 0.84210000175 0.75 0.204425007
 T1 Si 0.84210000175 0.75 0.204425007
 T1 Si 0.9079000054999999 0.75 0.04557500025
 T1 Si 0.9079000054999999 0.75 0.04557500025
 T1 Si 0.7955750002499999 0.84210000175 0.0
 T1 Si 0.7955750002499999 0.84210000175 0.0
 T1 Si 0.954425007 0.9079000054999999 0.0
 T1 Si 0.954425007 0.9079000054999999 0.0
 T1 Si 0.954425007 0.84210000175 0.0
 T1 Si 0.954425007 0.84210000175 0.0
 T1 Si 0.7955750002499999 0.9079000054999999 0.0
 T1 Si 0.7955750002499999 0.9079000054999999 0.0
 T1 Si 0.7955750002499999 0.75 0.1579000055
 T1 Si 0.7955750002499999 0.75 0.1579000055
 T1 Si 0.954425007 0.75 0.09210000175
 T1 Si 0.954425007 0.75 0.09210000175
 T1 Si 0.954425007 0.75 0.1579000055
 T1 Si 0.954425007 0.75 0.1579000055
 T1 Si 0.7955750002499999 0.75 0.09210000175
 T1 Si 0.7955750002499999 0.75 0.09210000175
 T1 Si 0.75 0.84210000175 0.204425007
 T1 Si 0.75 0.84210000175 0.204425007
 T1 Si 0.75 0.9079000054999999 0.04557500025
 T1 Si 0.75 0.9079000054999999 0.04557500025
 T1 Si 0.75 0.84210000175 0.04557500025
 T1 Si 0.75 0.84210000175 0.04557500025
 T1 Si 0.75 0.9079000054999999 0.204425007
 T1 Si 0.75 0.9079000054999999 0.204425007
 T1 Si 0.84210000175 0.7955750002499999 0.0
 T1 Si 0.84210000175 0.7955750002499999 0.0
 T1 Si 0.9079000054999999 0.954425007 0.0
 T1 Si 0.9079000054999999 0.954425007 0.0
 T1 Si 0.84210000175 0.954425007 0.0
 T1 Si 0.84210000175 0.954425007 0.0
 T1 Si 0.9079000054999999 0.7955750002499999 0.0
 T1 Si 0.9079000054999999 0.7955750002499999 0.0
 O1 O 0.0 0.05305000025 0.375
 O1 O 0.0 0.05305000025 0.375
 O1 O 0.0 0.1969500035 0.375
 O1 O 0.0 0.1969500035 0.375
 O1 O 0.125 0.0 0.30305000025
 O1 O 0.125 0.0 0.30305000025
 O1 O 0.125 0.0 0.4469500035
 O1 O 0.125 0.0 0.4469500035
 O1 O 0.05305000025 0.125 0.25
 O1 O 0.05305000025 0.125 0.25
 O1 O 0.1969500035 0.125 0.25
 O1 O 0.1969500035 0.125 0.25
 O1 O 0.05305000025 0.0 0.375
 O1 O 0.05305000025 0.0 0.375
 O1 O 0.1969500035 0.0 0.375
 O1 O 0.1969500035 0.0 0.375
 O1 O 0.0 0.125 0.4469500035
 O1 O 0.0 0.125 0.4469500035
 O1 O 0.0 0.125 0.30305000025
 O1 O 0.0 0.125 0.30305000025
 O1 O 0.125 0.05305000025 0.25
 O1 O 0.125 0.05305000025 0.25
 O1 O 0.125 0.1969500035 0.25
 O1 O 0.125 0.1969500035 0.25
 O2 O 0.02757499925 0.02757499925 0.3346000015
 O2 O 0.222424999 0.222424999 0.4153999985
 O2 O 0.222424999 0.222424999 0.3346000015
 O2 O 0.02757499925 0.02757499925 0.4153999985
 O2 O 0.222424999 0.02757499925 0.4153999985
 O2 O 0.02757499925 0.222424999 0.3346000015
 O2 O 0.02757499925 0.222424999 0.4153999985
 O2 O 0.222424999 0.02757499925 0.3346000015
 O2 O 0.0846000015 0.02757499925 0.27757499925
 O2 O 0.1653999985 0.222424999 0.472424999
 O2 O 0.0846000015 0.222424999 0.472424999
 O2 O 0.1653999985 0.02757499925 0.27757499925
 O2 O 0.1653999985 0.222424999 0.27757499925
 O2 O 0.0846000015 0.02757499925 0.472424999
 O2 O 0.1653999985 0.02757499925 0.472424999
 O2 O 0.0846000015 0.222424999 0.27757499925
 O2 O 0.02757499925 0.0846000015 0.27757499925
 O2 O 0.222424999 0.1653999985 0.472424999
 O2 O 0.222424999 0.0846000015 0.472424999
 O2 O 0.02757499925 0.1653999985 0.27757499925
 O2 O 0.02757499925 0.1653999985 0.472424999
 O2 O 0.222424999 0.0846000015 0.27757499925
 O2 O 0.222424999 0.1653999985 0.27757499925
 O2 O 0.02757499925 0.0846000015 0.472424999
 O3 O 0.0 0.07417500025 0.32417500025
 O3 O 0.0 0.07417500025 0.32417500025
 O3 O 0.0 0.17582499975 0.42582499975
 O3 O 0.0 0.17582499975 0.42582499975
 O3 O 0.0 0.17582499975 0.32417500025
 O3 O 0.0 0.17582499975 0.32417500025
 O3 O 0.0 0.07417500025 0.42582499975
 O3 O 0.0 0.07417500025 0.42582499975
 O3 O 0.07417500025 0.0 0.32417500025
 O3 O 0.07417500025 0.0 0.32417500025
 O3 O 0.17582499975 0.0 0.42582499975
 O3 O 0.17582499975 0.0 0.42582499975
 O3 O 0.07417500025 0.0 0.42582499975
 O3 O 0.07417500025 0.0 0.42582499975
 O3 O 0.17582499975 0.0 0.32417500025
 O3 O 0.17582499975 0.0 0.32417500025
 O3 O 0.07417500025 0.07417500025 0.25
 O3 O 0.07417500025 0.07417500025 0.25
 O3 O 0.17582499975 0.17582499975 0.25
 O3 O 0.17582499975 0.17582499975 0.25
 O3 O 0.17582499975 0.07417500025 0.25
 O3 O 0.17582499975 0.07417500025 0.25
 O3 O 0.07417500025 0.17582499975 0.25
 O3 O 0.07417500025 0.17582499975 0.25
 O2 O 0.222424999 0.02757499925 0.3346000015
 O2 O 0.02757498625 0.02757499925 0.3346000015
 O2 O 0.222424999 0.222424999 0.4153999985
 O2 O 0.02757498625 0.222424999 0.4153999985
 O2 O 0.222424999 0.222424999 0.3346000015
 O2 O 0.02757498625 0.222424999 0.3346000015
 O2 O 0.222424999 0.02757499925 0.4153999985
 O2 O 0.02757498625 0.02757499925 0.4153999985
 O2 O 0.0846000015 0.222424999 0.27757499925
 O2 O 0.0846000015 0.02757498625 0.27757499925
 O2 O 0.1653999985 0.222424999 0.472424999
 O2 O 0.1653999985 0.02757498625 0.472424999
 O2 O 0.0846000015 0.222424999 0.472424999
 O2 O 0.0846000015 0.02757498625 0.472424999
 O2 O 0.1653999985 0.222424999 0.27757499925
 O2 O 0.1653999985 0.02757498625 0.27757499925
 O2 O 0.02757499925 0.0846000015 0.472424999
 O2 O 0.02757499925 0.0846000015 0.27757498625
 O2 O 0.222424999 0.1653999985 0.472424999
 O2 O 0.222424999 0.1653999985 0.27757498625
 O2 O 0.222424999 0.0846000015 0.472424999
 O2 O 0.222424999 0.0846000015 0.27757498625
 O2 O 0.02757499925 0.1653999985 0.472424999
 O2 O 0.02757499925 0.1653999985 0.27757498625
 O2 O 0.02757499925 0.222424999 0.4153999985
 O2 O 0.02757499925 0.02757498625 0.4153999985
 O2 O 0.222424999 0.222424999 0.3346000015
 O2 O 0.222424999 0.02757498625 0.3346000015
 O2 O 0.222424999 0.222424999 0.4153999985
 O2 O 0.222424999 0.02757498625 0.4153999985
 O2 O 0.02757499925 0.222424999 0.3346000015
 O2 O 0.02757499925 0.02757498625 0.3346000015
 O2 O 0.222424999 0.0846000015 0.472424999
 O2 O 0.02757498625 0.0846000015 0.472424999
 O2 O 0.222424999 0.1653999985 0.27757499925
 O2 O 0.02757498625 0.1653999985 0.27757499925
 O2 O 0.222424999 0.0846000015 0.27757499925
 O2 O 0.02757498625 0.0846000015 0.27757499925
 O2 O 0.222424999 0.1653999985 0.472424999
 O2 O 0.02757498625 0.1653999985 0.472424999
 O2 O 0.0846000015 0.02757499925 0.472424999
 O2 O 0.0846000015 0.02757499925 0.27757498625
 O2 O 0.1653999985 0.222424999 0.472424999
 O2 O 0.1653999985 0.222424999 0.27757498625
 O2 O 0.0846000015 0.222424999 0.472424999
 O2 O 0.0846000015 0.222424999 0.27757498625
 O2 O 0.1653999985 0.02757499925 0.472424999
 O2 O 0.1653999985 0.02757499925 0.27757498625
 T1 Si 0.0 0.04557500025 0.34210000175
 T1 Si 0.0 0.04557500025 0.34210000175
 T1 Si 0.0 0.204425007 0.4079000055
 T1 Si 0.0 0.204425007 0.4079000055
 T1 Si 0.0 0.204425007 0.34210000175
 T1 Si 0.0 0.204425007 0.34210000175
 T1 Si 0.0 0.04557500025 0.4079000055
 T1 Si 0.0 0.04557500025 0.4079000055
 T1 Si 0.09210000175 0.0 0.29557500025
 T1 Si 0.09210000175 0.0 0.29557500025
 T1 Si 0.1579000055 0.0 0.454425007
 T1 Si 0.1579000055 0.0 0.454425007
 T1 Si 0.09210000175 0.0 0.454425007
 T1 Si 0.09210000175 0.0 0.454425007
 T1 Si 0.1579000055 0.0 0.29557500025
 T1 Si 0.1579000055 0.0 0.29557500025
 T1 Si 0.04557500025 0.09210000175 0.25
 T1 Si 0.04557500025 0.09210000175 0.25
 T1 Si 0.204425007 0.1579000055 0.25
 T1 Si 0.204425007 0.1579000055 0.25
 T1 Si 0.204425007 0.09210000175 0.25
 T1 Si 0.204425007 0.09210000175 0.25
 T1 Si 0.04557500025 0.1579000055 0.25
 T1 Si 0.04557500025 0.1579000055 0.25
 T1 Si 0.04557500025 0.0 0.4079000055
 T1 Si 0.04557500025 0.0 0.4079000055
 T1 Si 0.204425007 0.0 0.34210000175
 T1 Si 0.204425007 0.0 0.34210000175
 T1 Si 0.204425007 0.0 0.4079000055
 T1 Si 0.204425007 0.0 0.4079000055
 T1 Si 0.04557500025 0.0 0.34210000175
 T1 Si 0.04557500025 0.0 0.34210000175
 T1 Si 0.0 0.09210000175 0.454425007
 T1 Si 0.0 0.09210000175 0.454425007
 T1 Si 0.0 0.1579000055 0.29557500025
 T1 Si 0.0 0.1579000055 0.29557500025
 T1 Si 0.0 0.09210000175 0.29557500025
 T1 Si 0.0 0.09210000175 0.29557500025
 T1 Si 0.0 0.1579000055 0.454425007
 T1 Si 0.0 0.1579000055 0.454425007
 T1 Si 0.09210000175 0.04557500025 0.25
 T1 Si 0.09210000175 0.04557500025 0.25
 T1 Si 0.1579000055 0.204425007 0.25
 T1 Si 0.1579000055 0.204425007 0.25
 T1 Si 0.09210000175 0.204425007 0.25
 T1 Si 0.09210000175 0.204425007 0.25
 T1 Si 0.1579000055 0.04557500025 0.25
 T1 Si 0.1579000055 0.04557500025 0.25
 O1 O 0.25 0.05305000025 0.375
 O1 O 0.25 0.05305000025 0.375
 O1 O 0.25 0.1969500035 0.375
 O1 O 0.25 0.1969500035 0.375
 O1 O 0.375 0.0 0.30305000025
 O1 O 0.375 0.0 0.30305000025
 O1 O 0.375 0.0 0.4469500035
 O1 O 0.375 0.0 0.4469500035
 O1 O 0.30305000025 0.125 0.25
 O1 O 0.30305000025 0.125 0.25
 O1 O 0.4469500035 0.125 0.25
 O1 O 0.4469500035 0.125 0.25
 O1 O 0.30305000025 0.0 0.375
 O1 O 0.30305000025 0.0 0.375
 O1 O 0.4469500035 0.0 0.375
 O1 O 0.4469500035 0.0 0.375
 O1 O 0.25 0.125 0.4469500035
 O1 O 0.25 0.125 0.4469500035
 O1 O 0.25 0.125 0.30305000025
 O1 O 0.25 0.125 0.30305000025
 O1 O 0.375 0.05305000025 0.25
 O1 O 0.375 0.05305000025 0.25
 O1 O 0.375 0.1969500035 0.25
 O1 O 0.375 0.1969500035 0.25
 O2 O 0.27757499925 0.02757499925 0.3346000015
 O2 O 0.472424999 0.222424999 0.4153999985
 O2 O 0.472424999 0.222424999 0.3346000015
 O2 O 0.27757499925 0.02757499925 0.4153999985
 O2 O 0.472424999 0.02757499925 0.4153999985
 O2 O 0.27757499925 0.222424999 0.3346000015
 O2 O 0.27757499925 0.222424999 0.4153999985
 O2 O 0.472424999 0.02757499925 0.3346000015
 O2 O 0.3346000015 0.02757499925 0.27757499925
 O2 O 0.4153999985 0.222424999 0.472424999
 O2 O 0.3346000015 0.222424999 0.472424999
 O2 O 0.4153999985 0.02757499925 0.27757499925
 O2 O 0.4153999985 0.222424999 0.27757499925
 O2 O 0.3346000015 0.02757499925 0.472424999
 O2 O 0.4153999985 0.02757499925 0.472424999
 O2 O 0.3346000015 0.222424999 0.27757499925
 O2 O 0.27757499925 0.0846000015 0.27757499925
 O2 O 0.472424999 0.1653999985 0.472424999
 O2 O 0.472424999 0.0846000015 0.472424999
 O2 O 0.27757499925 0.1653999985 0.27757499925
 O2 O 0.27757499925 0.1653999985 0.472424999
 O2 O 0.472424999 0.0846000015 0.27757499925
 O2 O 0.472424999 0.1653999985 0.27757499925
 O2 O 0.27757499925 0.0846000015 0.472424999
 O3 O 0.25 0.07417500025 0.32417500025
 O3 O 0.25 0.07417500025 0.32417500025
 O3 O 0.25 0.17582499975 0.42582499975
 O3 O 0.25 0.17582499975 0.42582499975
 O3 O 0.25 0.17582499975 0.32417500025
 O3 O 0.25 0.17582499975 0.32417500025
 O3 O 0.25 0.07417500025 0.42582499975
 O3 O 0.25 0.07417500025 0.42582499975
 O3 O 0.32417500025 0.0 0.32417500025
 O3 O 0.32417500025 0.0 0.32417500025
 O3 O 0.42582499975 0.0 0.42582499975
 O3 O 0.42582499975 0.0 0.42582499975
 O3 O 0.32417500025 0.0 0.42582499975
 O3 O 0.32417500025 0.0 0.42582499975
 O3 O 0.42582499975 0.0 0.32417500025
 O3 O 0.42582499975 0.0 0.32417500025
 O3 O 0.32417500025 0.07417500025 0.25
 O3 O 0.32417500025 0.07417500025 0.25
 O3 O 0.42582499975 0.17582499975 0.25
 O3 O 0.42582499975 0.17582499975 0.25
 O3 O 0.42582499975 0.07417500025 0.25
 O3 O 0.42582499975 0.07417500025 0.25
 O3 O 0.32417500025 0.17582499975 0.25
 O3 O 0.32417500025 0.17582499975 0.25
 O2 O 0.472424999 0.02757499925 0.3346000015
 O2 O 0.27757498625 0.02757499925 0.3346000015
 O2 O 0.472424999 0.222424999 0.4153999985
 O2 O 0.27757498625 0.222424999 0.4153999985
 O2 O 0.472424999 0.222424999 0.3346000015
 O2 O 0.27757498625 0.222424999 0.3346000015
 O2 O 0.472424999 0.02757499925 0.4153999985
 O2 O 0.27757498625 0.02757499925 0.4153999985
 O2 O 0.3346000015 0.222424999 0.27757499925
 O2 O 0.3346000015 0.02757498625 0.27757499925
 O2 O 0.4153999985 0.222424999 0.472424999
 O2 O 0.4153999985 0.02757498625 0.472424999
 O2 O 0.3346000015 0.222424999 0.472424999
 O2 O 0.3346000015 0.02757498625 0.472424999
 O2 O 0.4153999985 0.222424999 0.27757499925
 O2 O 0.4153999985 0.02757498625 0.27757499925
 O2 O 0.27757499925 0.0846000015 0.472424999
 O2 O 0.27757499925 0.0846000015 0.27757498625
 O2 O 0.472424999 0.1653999985 0.472424999
 O2 O 0.472424999 0.1653999985 0.27757498625
 O2 O 0.472424999 0.0846000015 0.472424999
 O2 O 0.472424999 0.0846000015 0.27757498625
 O2 O 0.27757499925 0.1653999985 0.472424999
 O2 O 0.27757499925 0.1653999985 0.27757498625
 O2 O 0.27757499925 0.222424999 0.4153999985
 O2 O 0.27757499925 0.02757498625 0.4153999985
 O2 O 0.472424999 0.222424999 0.3346000015
 O2 O 0.472424999 0.02757498625 0.3346000015
 O2 O 0.472424999 0.222424999 0.4153999985
 O2 O 0.472424999 0.02757498625 0.4153999985
 O2 O 0.27757499925 0.222424999 0.3346000015
 O2 O 0.27757499925 0.02757498625 0.3346000015
 O2 O 0.472424999 0.0846000015 0.472424999
 O2 O 0.27757498625 0.0846000015 0.472424999
 O2 O 0.472424999 0.1653999985 0.27757499925
 O2 O 0.27757498625 0.1653999985 0.27757499925
 O2 O 0.472424999 0.0846000015 0.27757499925
 O2 O 0.27757498625 0.0846000015 0.27757499925
 O2 O 0.472424999 0.1653999985 0.472424999
 O2 O 0.27757498625 0.1653999985 0.472424999
 O2 O 0.3346000015 0.02757499925 0.472424999
 O2 O 0.3346000015 0.02757499925 0.27757498625
 O2 O 0.4153999985 0.222424999 0.472424999
 O2 O 0.4153999985 0.222424999 0.27757498625
 O2 O 0.3346000015 0.222424999 0.472424999
 O2 O 0.3346000015 0.222424999 0.27757498625
 O2 O 0.4153999985 0.02757499925 0.472424999
 O2 O 0.4153999985 0.02757499925 0.27757498625
 T1 Si 0.25 0.04557500025 0.34210000175
 T1 Si 0.25 0.04557500025 0.34210000175
 T1 Si 0.25 0.204425007 0.4079000055
 T1 Si 0.25 0.204425007 0.4079000055
 T1 Si 0.25 0.204425007 0.34210000175
 T1 Si 0.25 0.204425007 0.34210000175
 T1 Si 0.25 0.04557500025 0.4079000055
 T1 Si 0.25 0.04557500025 0.4079000055
 T1 Si 0.34210000175 0.0 0.29557500025
 T1 Si 0.34210000175 0.0 0.29557500025
 T1 Si 0.4079000055 0.0 0.454425007
 T1 Si 0.4079000055 0.0 0.454425007
 T1 Si 0.34210000175 0.0 0.454425007
 T1 Si 0.34210000175 0.0 0.454425007
 T1 Si 0.4079000055 0.0 0.29557500025
 T1 Si 0.4079000055 0.0 0.29557500025
 T1 Si 0.29557500025 0.09210000175 0.25
 T1 Si 0.29557500025 0.09210000175 0.25
 T1 Si 0.454425007 0.1579000055 0.25
 T1 Si 0.454425007 0.1579000055 0.25
 T1 Si 0.454425007 0.09210000175 0.25
 T1 Si 0.454425007 0.09210000175 0.25
 T1 Si 0.29557500025 0.1579000055 0.25
 T1 Si 0.29557500025 0.1579000055 0.25
 T1 Si 0.29557500025 0.0 0.4079000055
 T1 Si 0.29557500025 0.0 0.4079000055
 T1 Si 0.454425007 0.0 0.34210000175
 T1 Si 0.454425007 0.0 0.34210000175
 T1 Si 0.454425007 0.0 0.4079000055
 T1 Si 0.454425007 0.0 0.4079000055
 T1 Si 0.29557500025 0.0 0.34210000175
 T1 Si 0.29557500025 0.0 0.34210000175
 T1 Si 0.25 0.09210000175 0.454425007
 T1 Si 0.25 0.09210000175 0.454425007
 T1 Si 0.25 0.1579000055 0.29557500025
 T1 Si 0.25 0.1579000055 0.29557500025
 T1 Si 0.25 0.09210000175 0.29557500025
 T1 Si 0.25 0.09210000175 0.29557500025
 T1 Si 0.25 0.1579000055 0.454425007
 T1 Si 0.25 0.1579000055 0.454425007
 T1 Si 0.34210000175 0.04557500025 0.25
 T1 Si 0.34210000175 0.04557500025 0.25
 T1 Si 0.4079000055 0.204425007 0.25
 T1 Si 0.4079000055 0.204425007 0.25
 T1 Si 0.34210000175 0.204425007 0.25
 T1 Si 0.34210000175 0.204425007 0.25
 T1 Si 0.4079000055 0.04557500025 0.25
 T1 Si 0.4079000055 0.04557500025 0.25
 O1 O 0.5 0.05305000025 0.375
 O1 O 0.5 0.05305000025 0.375
 O1 O 0.5 0.1969500035 0.375
 O1 O 0.5 0.1969500035 0.375
 O1 O 0.625 0.0 0.30305000025
 O1 O 0.625 0.0 0.30305000025
 O1 O 0.625 0.0 0.4469500035
 O1 O 0.625 0.0 0.4469500035
 O1 O 0.5530500002500001 0.125 0.25
 O1 O 0.5530500002500001 0.125 0.25
 O1 O 0.6969500035 0.125 0.25
 O1 O 0.6969500035 0.125 0.25
 O1 O 0.5530500002500001 0.0 0.375
 O1 O 0.5530500002500001 0.0 0.375
 O1 O 0.6969500035 0.0 0.375
 O1 O 0.6969500035 0.0 0.375
 O1 O 0.5 0.125 0.4469500035
 O1 O 0.5 0.125 0.4469500035
 O1 O 0.5 0.125 0.30305000025
 O1 O 0.5 0.125 0.30305000025
 O1 O 0.625 0.05305000025 0.25
 O1 O 0.625 0.05305000025 0.25
 O1 O 0.625 0.1969500035 0.25
 O1 O 0.625 0.1969500035 0.25
 O2 O 0.5275749992500001 0.02757499925 0.3346000015
 O2 O 0.722424999 0.222424999 0.4153999985
 O2 O 0.722424999 0.222424999 0.3346000015
 O2 O 0.5275749992500001 0.02757499925 0.4153999985
 O2 O 0.722424999 0.02757499925 0.4153999985
 O2 O 0.5275749992500001 0.222424999 0.3346000015
 O2 O 0.5275749992500001 0.222424999 0.4153999985
 O2 O 0.722424999 0.02757499925 0.3346000015
 O2 O 0.5846000015 0.02757499925 0.27757499925
 O2 O 0.6653999985 0.222424999 0.472424999
 O2 O 0.5846000015 0.222424999 0.472424999
 O2 O 0.6653999985 0.02757499925 0.27757499925
 O2 O 0.6653999985 0.222424999 0.27757499925
 O2 O 0.5846000015 0.02757499925 0.472424999
 O2 O 0.6653999985 0.02757499925 0.472424999
 O2 O 0.5846000015 0.222424999 0.27757499925
 O2 O 0.5275749992500001 0.0846000015 0.27757499925
 O2 O 0.722424999 0.1653999985 0.472424999
 O2 O 0.722424999 0.0846000015 0.472424999
 O2 O 0.5275749992500001 0.1653999985 0.27757499925
 O2 O 0.5275749992500001 0.1653999985 0.472424999
 O2 O 0.722424999 0.0846000015 0.27757499925
 O2 O 0.722424999 0.1653999985 0.27757499925
 O2 O 0.5275749992500001 0.0846000015 0.472424999
 O3 O 0.5 0.07417500025 0.32417500025
 O3 O 0.5 0.07417500025 0.32417500025
 O3 O 0.5 0.17582499975 0.42582499975
 O3 O 0.5 0.17582499975 0.42582499975
 O3 O 0.5 0.17582499975 0.32417500025
 O3 O 0.5 0.17582499975 0.32417500025
 O3 O 0.5 0.07417500025 0.42582499975
 O3 O 0.5 0.07417500025 0.42582499975
 O3 O 0.57417500025 0.0 0.32417500025
 O3 O 0.57417500025 0.0 0.32417500025
 O3 O 0.67582499975 0.0 0.42582499975
 O3 O 0.67582499975 0.0 0.42582499975
 O3 O 0.57417500025 0.0 0.42582499975
 O3 O 0.57417500025 0.0 0.42582499975
 O3 O 0.67582499975 0.0 0.32417500025
 O3 O 0.67582499975 0.0 0.32417500025
 O3 O 0.57417500025 0.07417500025 0.25
 O3 O 0.57417500025 0.07417500025 0.25
 O3 O 0.67582499975 0.17582499975 0.25
 O3 O 0.67582499975 0.17582499975 0.25
 O3 O 0.67582499975 0.07417500025 0.25
 O3 O 0.67582499975 0.07417500025 0.25
 O3 O 0.57417500025 0.17582499975 0.25
 O3 O 0.57417500025 0.17582499975 0.25
 O2 O 0.722424999 0.02757499925 0.3346000015
 O2 O 0.52757498625 0.02757499925 0.3346000015
 O2 O 0.722424999 0.222424999 0.4153999985
 O2 O 0.52757498625 0.222424999 0.4153999985
 O2 O 0.722424999 0.222424999 0.3346000015
 O2 O 0.52757498625 0.222424999 0.3346000015
 O2 O 0.722424999 0.02757499925 0.4153999985
 O2 O 0.52757498625 0.02757499925 0.4153999985
 O2 O 0.5846000015 0.222424999 0.27757499925
 O2 O 0.5846000015 0.02757498625 0.27757499925
 O2 O 0.6653999985 0.222424999 0.472424999
 O2 O 0.6653999985 0.02757498625 0.472424999
 O2 O 0.5846000015 0.222424999 0.472424999
 O2 O 0.5846000015 0.02757498625 0.472424999
 O2 O 0.6653999985 0.222424999 0.27757499925
 O2 O 0.6653999985 0.02757498625 0.27757499925
 O2 O 0.5275749992500001 0.0846000015 0.472424999
 O2 O 0.5275749992500001 0.0846000015 0.27757498625
 O2 O 0.722424999 0.1653999985 0.472424999
 O2 O 0.722424999 0.1653999985 0.27757498625
 O2 O 0.722424999 0.0846000015 0.472424999
 O2 O 0.722424999 0.0846000015 0.27757498625
 O2 O 0.5275749992500001 0.1653999985 0.472424999
 O2 O 0.5275749992500001 0.1653999985 0.27757498625
 O2 O 0.5275749992500001 0.222424999 0.4153999985
 O2 O 0.5275749992500001 0.02757498625 0.4153999985
 O2 O 0.722424999 0.222424999 0.3346000015
 O2 O 0.722424999 0.02757498625 0.3346000015
 O2 O 0.722424999 0.222424999 0.4153999985
 O2 O 0.722424999 0.02757498625 0.4153999985
 O2 O 0.5275749992500001 0.222424999 0.3346000015
 O2 O 0.5275749992500001 0.02757498625 0.3346000015
 O2 O 0.722424999 0.0846000015 0.472424999
 O2 O 0.52757498625 0.0846000015 0.472424999
 O2 O 0.722424999 0.1653999985 0.27757499925
 O2 O 0.52757498625 0.1653999985 0.27757499925
 O2 O 0.722424999 0.0846000015 0.27757499925
 O2 O 0.52757498625 0.0846000015 0.27757499925
 O2 O 0.722424999 0.1653999985 0.472424999
 O2 O 0.52757498625 0.1653999985 0.472424999
 O2 O 0.5846000015 0.02757499925 0.472424999
 O2 O 0.5846000015 0.02757499925 0.27757498625
 O2 O 0.6653999985 0.222424999 0.472424999
 O2 O 0.6653999985 0.222424999 0.27757498625
 O2 O 0.5846000015 0.222424999 0.472424999
 O2 O 0.5846000015 0.222424999 0.27757498625
 O2 O 0.6653999985 0.02757499925 0.472424999
 O2 O 0.6653999985 0.02757499925 0.27757498625
 T1 Si 0.5 0.04557500025 0.34210000175
 T1 Si 0.5 0.04557500025 0.34210000175
 T1 Si 0.5 0.204425007 0.4079000055
 T1 Si 0.5 0.204425007 0.4079000055
 T1 Si 0.5 0.204425007 0.34210000175
 T1 Si 0.5 0.204425007 0.34210000175
 T1 Si 0.5 0.04557500025 0.4079000055
 T1 Si 0.5 0.04557500025 0.4079000055
 T1 Si 0.59210000175 0.0 0.29557500025
 T1 Si 0.59210000175 0.0 0.29557500025
 T1 Si 0.6579000054999999 0.0 0.454425007
 T1 Si 0.6579000054999999 0.0 0.454425007
 T1 Si 0.59210000175 0.0 0.454425007
 T1 Si 0.59210000175 0.0 0.454425007
 T1 Si 0.6579000054999999 0.0 0.29557500025
 T1 Si 0.6579000054999999 0.0 0.29557500025
 T1 Si 0.5455750002499999 0.09210000175 0.25
 T1 Si 0.5455750002499999 0.09210000175 0.25
 T1 Si 0.704425007 0.1579000055 0.25
 T1 Si 0.704425007 0.1579000055 0.25
 T1 Si 0.704425007 0.09210000175 0.25
 T1 Si 0.704425007 0.09210000175 0.25
 T1 Si 0.5455750002499999 0.1579000055 0.25
 T1 Si 0.5455750002499999 0.1579000055 0.25
 T1 Si 0.5455750002499999 0.0 0.4079000055
 T1 Si 0.5455750002499999 0.0 0.4079000055
 T1 Si 0.704425007 0.0 0.34210000175
 T1 Si 0.704425007 0.0 0.34210000175
 T1 Si 0.704425007 0.0 0.4079000055
 T1 Si 0.704425007 0.0 0.4079000055
 T1 Si 0.5455750002499999 0.0 0.34210000175
 T1 Si 0.5455750002499999 0.0 0.34210000175
 T1 Si 0.5 0.09210000175 0.454425007
 T1 Si 0.5 0.09210000175 0.454425007
 T1 Si 0.5 0.1579000055 0.29557500025
 T1 Si 0.5 0.1579000055 0.29557500025
 T1 Si 0.5 0.09210000175 0.29557500025
 T1 Si 0.5 0.09210000175 0.29557500025
 T1 Si 0.5 0.1579000055 0.454425007
 T1 Si 0.5 0.1579000055 0.454425007
 T1 Si 0.59210000175 0.04557500025 0.25
 T1 Si 0.59210000175 0.04557500025 0.25
 T1 Si 0.6579000054999999 0.204425007 0.25
 T1 Si 0.6579000054999999 0.204425007 0.25
 T1 Si 0.59210000175 0.204425007 0.25
 T1 Si 0.59210000175 0.204425007 0.25
 T1 Si 0.6579000054999999 0.04557500025 0.25
 T1 Si 0.6579000054999999 0.04557500025 0.25
 O1 O 0.75 0.05305000025 0.375
 O1 O 0.75 0.05305000025 0.375
 O1 O 0.75 0.1969500035 0.375
 O1 O 0.75 0.1969500035 0.375
 O1 O 0.875 0.0 0.30305000025
 O1 O 0.875 0.0 0.30305000025
 O1 O 0.875 0.0 0.4469500035
 O1 O 0.875 0.0 0.4469500035
 O1 O 0.8030500002500001 0.125 0.25
 O1 O 0.8030500002500001 0.125 0.25
 O1 O 0.9469500035 0.125 0.25
 O1 O 0.9469500035 0.125 0.25
 O1 O 0.8030500002500001 0.0 0.375
 O1 O 0.8030500002500001 0.0 0.375
 O1 O 0.9469500035 0.0 0.375
 O1 O 0.9469500035 0.0 0.375
 O1 O 0.75 0.125 0.4469500035
 O1 O 0.75 0.125 0.4469500035
 O1 O 0.75 0.125 0.30305000025
 O1 O 0.75 0.125 0.30305000025
 O1 O 0.875 0.05305000025 0.25
 O1 O 0.875 0.05305000025 0.25
 O1 O 0.875 0.1969500035 0.25
 O1 O 0.875 0.1969500035 0.25
 O2 O 0.7775749992500001 0.02757499925 0.3346000015
 O2 O 0.972424999 0.222424999 0.4153999985
 O2 O 0.972424999 0.222424999 0.3346000015
 O2 O 0.7775749992500001 0.02757499925 0.4153999985
 O2 O 0.972424999 0.02757499925 0.4153999985
 O2 O 0.7775749992500001 0.222424999 0.3346000015
 O2 O 0.7775749992500001 0.222424999 0.4153999985
 O2 O 0.972424999 0.02757499925 0.3346000015
 O2 O 0.8346000015 0.02757499925 0.27757499925
 O2 O 0.9153999985 0.222424999 0.472424999
 O2 O 0.8346000015 0.222424999 0.472424999
 O2 O 0.9153999985 0.02757499925 0.27757499925
 O2 O 0.9153999985 0.222424999 0.27757499925
 O2 O 0.8346000015 0.02757499925 0.472424999
 O2 O 0.9153999985 0.02757499925 0.472424999
 O2 O 0.8346000015 0.222424999 0.27757499925
 O2 O 0.7775749992500001 0.0846000015 0.27757499925
 O2 O 0.972424999 0.1653999985 0.472424999
 O2 O 0.972424999 0.0846000015 0.472424999
 O2 O 0.7775749992500001 0.1653999985 0.27757499925
 O2 O 0.7775749992500001 0.1653999985 0.472424999
 O2 O 0.972424999 0.0846000015 0.27757499925
 O2 O 0.972424999 0.1653999985 0.27757499925
 O2 O 0.7775749992500001 0.0846000015 0.472424999
 O3 O 0.75 0.07417500025 0.32417500025
 O3 O 0.75 0.07417500025 0.32417500025
 O3 O 0.75 0.17582499975 0.42582499975
 O3 O 0.75 0.17582499975 0.42582499975
 O3 O 0.75 0.17582499975 0.32417500025
 O3 O 0.75 0.17582499975 0.32417500025
 O3 O 0.75 0.07417500025 0.42582499975
 O3 O 0.75 0.07417500025 0.42582499975
 O3 O 0.82417500025 0.0 0.32417500025
 O3 O 0.82417500025 0.0 0.32417500025
 O3 O 0.92582499975 0.0 0.42582499975
 O3 O 0.92582499975 0.0 0.42582499975
 O3 O 0.82417500025 0.0 0.42582499975
 O3 O 0.82417500025 0.0 0.42582499975
 O3 O 0.92582499975 0.0 0.32417500025
 O3 O 0.92582499975 0.0 0.32417500025
 O3 O 0.82417500025 0.07417500025 0.25
 O3 O 0.82417500025 0.07417500025 0.25
 O3 O 0.92582499975 0.17582499975 0.25
 O3 O 0.92582499975 0.17582499975 0.25
 O3 O 0.92582499975 0.07417500025 0.25
 O3 O 0.92582499975 0.07417500025 0.25
 O3 O 0.82417500025 0.17582499975 0.25
 O3 O 0.82417500025 0.17582499975 0.25
 O2 O 0.972424999 0.02757499925 0.3346000015
 O2 O 0.77757498625 0.02757499925 0.3346000015
 O2 O 0.972424999 0.222424999 0.4153999985
 O2 O 0.77757498625 0.222424999 0.4153999985
 O2 O 0.972424999 0.222424999 0.3346000015
 O2 O 0.77757498625 0.222424999 0.3346000015
 O2 O 0.972424999 0.02757499925 0.4153999985
 O2 O 0.77757498625 0.02757499925 0.4153999985
 O2 O 0.8346000015 0.222424999 0.27757499925
 O2 O 0.8346000015 0.02757498625 0.27757499925
 O2 O 0.9153999985 0.222424999 0.472424999
 O2 O 0.9153999985 0.02757498625 0.472424999
 O2 O 0.8346000015 0.222424999 0.472424999
 O2 O 0.8346000015 0.02757498625 0.472424999
 O2 O 0.9153999985 0.222424999 0.27757499925
 O2 O 0.9153999985 0.02757498625 0.27757499925
 O2 O 0.7775749992500001 0.0846000015 0.472424999
 O2 O 0.7775749992500001 0.0846000015 0.27757498625
 O2 O 0.972424999 0.1653999985 0.472424999
 O2 O 0.972424999 0.1653999985 0.27757498625
 O2 O 0.972424999 0.0846000015 0.472424999
 O2 O 0.972424999 0.0846000015 0.27757498625
 O2 O 0.7775749992500001 0.1653999985 0.472424999
 O2 O 0.7775749992500001 0.1653999985 0.27757498625
 O2 O 0.7775749992500001 0.222424999 0.4153999985
 O2 O 0.7775749992500001 0.02757498625 0.4153999985
 O2 O 0.972424999 0.222424999 0.3346000015
 O2 O 0.972424999 0.02757498625 0.3346000015
 O2 O 0.972424999 0.222424999 0.4153999985
 O2 O 0.972424999 0.02757498625 0.4153999985
 O2 O 0.7775749992500001 0.222424999 0.3346000015
 O2 O 0.7775749992500001 0.02757498625 0.3346000015
 O2 O 0.972424999 0.0846000015 0.472424999
 O2 O 0.77757498625 0.0846000015 0.472424999
 O2 O 0.972424999 0.1653999985 0.27757499925
 O2 O 0.77757498625 0.1653999985 0.27757499925
 O2 O 0.972424999 0.0846000015 0.27757499925
 O2 O 0.77757498625 0.0846000015 0.27757499925
 O2 O 0.972424999 0.1653999985 0.472424999
 O2 O 0.77757498625 0.1653999985 0.472424999
 O2 O 0.8346000015 0.02757499925 0.472424999
 O2 O 0.8346000015 0.02757499925 0.27757498625
 O2 O 0.9153999985 0.222424999 0.472424999
 O2 O 0.9153999985 0.222424999 0.27757498625
 O2 O 0.8346000015 0.222424999 0.472424999
 O2 O 0.8346000015 0.222424999 0.27757498625
 O2 O 0.9153999985 0.02757499925 0.472424999
 O2 O 0.9153999985 0.02757499925 0.27757498625
 T1 Si 0.75 0.04557500025 0.34210000175
 T1 Si 0.75 0.04557500025 0.34210000175
 T1 Si 0.75 0.204425007 0.4079000055
 T1 Si 0.75 0.204425007 0.4079000055
 T1 Si 0.75 0.204425007 0.34210000175
 T1 Si 0.75 0.204425007 0.34210000175
 T1 Si 0.75 0.04557500025 0.4079000055
 T1 Si 0.75 0.04557500025 0.4079000055
 T1 Si 0.84210000175 0.0 0.29557500025
 T1 Si 0.84210000175 0.0 0.29557500025
 T1 Si 0.9079000054999999 0.0 0.454425007
 T1 Si 0.9079000054999999 0.0 0.454425007
 T1 Si 0.84210000175 0.0 0.454425007
 T1 Si 0.84210000175 0.0 0.454425007
 T1 Si 0.9079000054999999 0.0 0.29557500025
 T1 Si 0.9079000054999999 0.0 0.29557500025
 T1 Si 0.7955750002499999 0.09210000175 0.25
 T1 Si 0.7955750002499999 0.09210000175 0.25
 T1 Si 0.954425007 0.1579000055 0.25
 T1 Si 0.954425007 0.1579000055 0.25
 T1 Si 0.954425007 0.09210000175 0.25
 T1 Si 0.954425007 0.09210000175 0.25
 T1 Si 0.7955750002499999 0.1579000055 0.25
 T1 Si 0.7955750002499999 0.1579000055 0.25
 T1 Si 0.7955750002499999 0.0 0.4079000055
 T1 Si 0.7955750002499999 0.0 0.4079000055
 T1 Si 0.954425007 0.0 0.34210000175
 T1 Si 0.954425007 0.0 0.34210000175
 T1 Si 0.954425007 0.0 0.4079000055
 T1 Si 0.954425007 0.0 0.4079000055
 T1 Si 0.7955750002499999 0.0 0.34210000175
 T1 Si 0.7955750002499999 0.0 0.34210000175
 T1 Si 0.75 0.09210000175 0.454425007
 T1 Si 0.75 0.09210000175 0.454425007
 T1 Si 0.75 0.1579000055 0.29557500025
 T1 Si 0.75 0.1579000055 0.29557500025
 T1 Si 0.75 0.09210000175 0.29557500025
 T1 Si 0.75 0.09210000175 0.29557500025
 T1 Si 0.75 0.1579000055 0.454425007
 T1 Si 0.75 0.1579000055 0.454425007
 T1 Si 0.84210000175 0.04557500025 0.25
 T1 Si 0.84210000175 0.04557500025 0.25
 T1 Si 0.9079000054999999 0.204425007 0.25
 T1 Si 0.9079000054999999 0.204425007 0.25
 T1 Si 0.84210000175 0.204425007 0.25
 T1 Si 0.84210000175 0.204425007 0.25
 T1 Si 0.9079000054999999 0.04557500025 0.25
 T1 Si 0.9079000054999999 0.04557500025 0.25
 O1 O 0.0 0.30305000025 0.375
 O1 O 0.0 0.30305000025 0.375
 O1 O 0.0 0.4469500035 0.375
 O1 O 0.0 0.4469500035 0.375
 O1 O 0.125 0.25 0.30305000025
 O1 O 0.125 0.25 0.30305000025
 O1 O 0.125 0.25 0.4469500035
 O1 O 0.125 0.25 0.4469500035
 O1 O 0.05305000025 0.375 0.25
 O1 O 0.05305000025 0.375 0.25
 O1 O 0.1969500035 0.375 0.25
 O1 O 0.1969500035 0.375 0.25
 O1 O 0.05305000025 0.25 0.375
 O1 O 0.05305000025 0.25 0.375
 O1 O 0.1969500035 0.25 0.375
 O1 O 0.1969500035 0.25 0.375
 O1 O 0.0 0.375 0.4469500035
 O1 O 0.0 0.375 0.4469500035
 O1 O 0.0 0.375 0.30305000025
 O1 O 0.0 0.375 0.30305000025
 O1 O 0.125 0.30305000025 0.25
 O1 O 0.125 0.30305000025 0.25
 O1 O 0.125 0.4469500035 0.25
 O1 O 0.125 0.4469500035 0.25
 O2 O 0.02757499925 0.27757499925 0.3346000015
 O2 O 0.222424999 0.472424999 0.4153999985
 O2 O 0.222424999 0.472424999 0.3346000015
 O2 O 0.02757499925 0.27757499925 0.4153999985
 O2 O 0.222424999 0.27757499925 0.4153999985
 O2 O 0.02757499925 0.472424999 0.3346000015
 O2 O 0.02757499925 0.472424999 0.4153999985
 O2 O 0.222424999 0.27757499925 0.3346000015
 O2 O 0.0846000015 0.27757499925 0.27757499925
 O2 O 0.1653999985 0.472424999 0.472424999
 O2 O 0.0846000015 0.472424999 0.472424999
 O2 O 0.1653999985 0.27757499925 0.27757499925
 O2 O 0.1653999985 0.472424999 0.27757499925
 O2 O 0.0846000015 0.27757499925 0.472424999
 O2 O 0.1653999985 0.27757499925 0.472424999
 O2 O 0.0846000015 0.472424999 0.27757499925
 O2 O 0.02757499925 0.3346000015 0.27757499925
 O2 O 0.222424999 0.4153999985 0.472424999
 O2 O 0.222424999 0.3346000015 0.472424999
 O2 O 0.02757499925 0.4153999985 0.27757499925
 O2 O 0.02757499925 0.4153999985 0.472424999
 O2 O 0.222424999 0.3346000015 0.27757499925
 O2 O 0.222424999 0.4153999985 0.27757499925
 O2 O 0.02757499925 0.3346000015 0.472424999
 O3 O 0.0 0.32417500025 0.32417500025
 O3 O 0.0 0.32417500025 0.32417500025
 O3 O 0.0 0.42582499975 0.42582499975
 O3 O 0.0 0.42582499975 0.42582499975
 O3 O 0.0 0.42582499975 0.32417500025
 O3 O 0.0 0.42582499975 0.32417500025
 O3 O 0.0 0.32417500025 0.42582499975
 O3 O 0.0 0.32417500025 0.42582499975
 O3 O 0.07417500025 0.25 0.32417500025
 O3 O 0.07417500025 0.25 0.32417500025
 O3 O 0.17582499975 0.25 0.42582499975
 O3 O 0.17582499975 0.25 0.42582499975
 O3 O 0.07417500025 0.25 0.42582499975
 O3 O 0.07417500025 0.25 0.42582499975
 O3 O 0.17582499975 0.25 0.32417500025
 O3 O 0.17582499975 0.25 0.32417500025
 O3 O 0.07417500025 0.32417500025 0.25
 O3 O 0.07417500025 0.32417500025 0.25
 O3 O 0.17582499975 0.42582499975 0.25
 O3 O 0.17582499975 0.42582499975 0.25
 O3 O 0.17582499975 0.32417500025 0.25
 O3 O 0.17582499975 0.32417500025 0.25
 O3 O 0.07417500025 0.42582499975 0.25
 O3 O 0.07417500025 0.42582499975 0.25
 O2 O 0.222424999 0.27757499925 0.3346000015
 O2 O 0.02757498625 0.27757499925 0.3346000015
 O2 O 0.222424999 0.472424999 0.4153999985
 O2 O 0.02757498625 0.472424999 0.4153999985
 O2 O 0.222424999 0.472424999 0.3346000015
 O2 O 0.02757498625 0.472424999 0.3346000015
 O2 O 0.222424999 0.27757499925 0.4153999985
 O2 O 0.02757498625 0.27757499925 0.4153999985
 O2 O 0.0846000015 0.472424999 0.27757499925
 O2 O 0.0846000015 0.27757498625 0.27757499925
 O2 O 0.1653999985 0.472424999 0.472424999
 O2 O 0.1653999985 0.27757498625 0.472424999
 O2 O 0.0846000015 0.472424999 0.472424999
 O2 O 0.0846000015 0.27757498625 0.472424999
 O2 O 0.1653999985 0.472424999 0.27757499925
 O2 O 0.1653999985 0.27757498625 0.27757499925
 O2 O 0.02757499925 0.3346000015 0.472424999
 O2 O 0.02757499925 0.3346000015 0.27757498625
 O2 O 0.222424999 0.4153999985 0.472424999
 O2 O 0.222424999 0.4153999985 0.27757498625
 O2 O 0.222424999 0.3346000015 0.472424999
 O2 O 0.222424999 0.3346000015 0.27757498625
 O2 O 0.02757499925 0.4153999985 0.472424999
 O2 O 0.02757499925 0.4153999985 0.27757498625
 O2 O 0.02757499925 0.472424999 0.4153999985
 O2 O 0.02757499925 0.27757498625 0.4153999985
 O2 O 0.222424999 0.472424999 0.3346000015
 O2 O 0.222424999 0.27757498625 0.3346000015
 O2 O 0.222424999 0.472424999 0.4153999985
 O2 O 0.222424999 0.27757498625 0.4153999985
 O2 O 0.02757499925 0.472424999 0.3346000015
 O2 O 0.02757499925 0.27757498625 0.3346000015
 O2 O 0.222424999 0.3346000015 0.472424999
 O2 O 0.02757498625 0.3346000015 0.472424999
 O2 O 0.222424999 0.4153999985 0.27757499925
 O2 O 0.02757498625 0.4153999985 0.27757499925
 O2 O 0.222424999 0.3346000015 0.27757499925
 O2 O 0.02757498625 0.3346000015 0.27757499925
 O2 O 0.222424999 0.4153999985 0.472424999
 O2 O 0.02757498625 0.4153999985 0.472424999
 O2 O 0.0846000015 0.27757499925 0.472424999
 O2 O 0.0846000015 0.27757499925 0.27757498625
 O2 O 0.1653999985 0.472424999 0.472424999
 O2 O 0.1653999985 0.472424999 0.27757498625
 O2 O 0.0846000015 0.472424999 0.472424999
 O2 O 0.0846000015 0.472424999 0.27757498625
 O2 O 0.1653999985 0.27757499925 0.472424999
 O2 O 0.1653999985 0.27757499925 0.27757498625
 T1 Si 0.0 0.29557500025 0.34210000175
 T1 Si 0.0 0.29557500025 0.34210000175
 T1 Si 0.0 0.454425007 0.4079000055
 T1 Si 0.0 0.454425007 0.4079000055
 T1 Si 0.0 0.454425007 0.34210000175
 T1 Si 0.0 0.454425007 0.34210000175
 T1 Si 0.0 0.29557500025 0.4079000055
 T1 Si 0.0 0.29557500025 0.4079000055
 T1 Si 0.09210000175 0.25 0.29557500025
 T1 Si 0.09210000175 0.25 0.29557500025
 T1 Si 0.1579000055 0.25 0.454425007
 T1 Si 0.1579000055 0.25 0.454425007
 T1 Si 0.09210000175 0.25 0.454425007
 T1 Si 0.09210000175 0.25 0.454425007
 T1 Si 0.1579000055 0.25 0.29557500025
 T1 Si 0.1579000055 0.25 0.29557500025
 T1 Si 0.04557500025 0.34210000175 0.25
 T1 Si 0.04557500025 0.34210000175 0.25
 T1 Si 0.204425007 0.4079000055 0.25
 T1 Si 0.204425007 0.4079000055 0.25
 T1 Si 0.204425007 0.34210000175 0.25
 T1 Si 0.204425007 0.34210000175 0.25
 T1 Si 0.04557500025 0.4079000055 0.25
 T1 Si 0.04557500025 0.4079000055 0.25
 T1 Si 0.04557500025 0.25 0.4079000055
 T1 Si 0.04557500025 0.25 0.4079000055
 T1 Si 0.204425007 0.25 0.34210000175
 T1 Si 0.204425007 0.25 0.34210000175
 T1 Si 0.204425007 0.25 0.4079000055
 T1 Si 0.204425007 0.25 0.4079000055
 T1 Si 0.04557500025 0.25 0.34210000175
 T1 Si 0.04557500025 0.25 0.34210000175
 T1 Si 0.0 0.34210000175 0.454425007
 T1 Si 0.0 0.34210000175 0.454425007
 T1 Si 0.0 0.4079000055 0.29557500025
 T1 Si 0.0 0.4079000055 0.29557500025
 T1 Si 0.0 0.34210000175 0.29557500025
 T1 Si 0.0 0.34210000175 0.29557500025
 T1 Si 0.0 0.4079000055 0.454425007
 T1 Si 0.0 0.4079000055 0.454425007
 T1 Si 0.09210000175 0.29557500025 0.25
 T1 Si 0.09210000175 0.29557500025 0.25
 T1 Si 0.1579000055 0.454425007 0.25
 T1 Si 0.1579000055 0.454425007 0.25
 T1 Si 0.09210000175 0.454425007 0.25
 T1 Si 0.09210000175 0.454425007 0.25
 T1 Si 0.1579000055 0.29557500025 0.25
 T1 Si 0.1579000055 0.29557500025 0.25
 O1 O 0.25 0.30305000025 0.375
 O1 O 0.25 0.30305000025 0.375
 O1 O 0.25 0.4469500035 0.375
 O1 O 0.25 0.4469500035 0.375
 O1 O 0.375 0.25 0.30305000025
 O1 O 0.375 0.25 0.30305000025
 O1 O 0.375 0.25 0.4469500035
 O1 O 0.375 0.25 0.4469500035
 O1 O 0.30305000025 0.375 0.25
 O1 O 0.30305000025 0.375 0.25
 O1 O 0.4469500035 0.375 0.25
 O1 O 0.4469500035 0.375 0.25
 O1 O 0.30305000025 0.25 0.375
 O1 O 0.30305000025 0.25 0.375
 O1 O 0.4469500035 0.25 0.375
 O1 O 0.4469500035 0.25 0.375
 O1 O 0.25 0.375 0.4469500035
 O1 O 0.25 0.375 0.4469500035
 O1 O 0.25 0.375 0.30305000025
 O1 O 0.25 0.375 0.30305000025
 O1 O 0.375 0.30305000025 0.25
 O1 O 0.375 0.30305000025 0.25
 O1 O 0.375 0.4469500035 0.25
 O1 O 0.375 0.4469500035 0.25
 O2 O 0.27757499925 0.27757499925 0.3346000015
 O2 O 0.472424999 0.472424999 0.4153999985
 O2 O 0.472424999 0.472424999 0.3346000015
 O2 O 0.27757499925 0.27757499925 0.4153999985
 O2 O 0.472424999 0.27757499925 0.4153999985
 O2 O 0.27757499925 0.472424999 0.3346000015
 O2 O 0.27757499925 0.472424999 0.4153999985
 O2 O 0.472424999 0.27757499925 0.3346000015
 O2 O 0.3346000015 0.27757499925 0.27757499925
 O2 O 0.4153999985 0.472424999 0.472424999
 O2 O 0.3346000015 0.472424999 0.472424999
 O2 O 0.4153999985 0.27757499925 0.27757499925
 O2 O 0.4153999985 0.472424999 0.27757499925
 O2 O 0.3346000015 0.27757499925 0.472424999
 O2 O 0.4153999985 0.27757499925 0.472424999
 O2 O 0.3346000015 0.472424999 0.27757499925
 O2 O 0.27757499925 0.3346000015 0.27757499925
 O2 O 0.472424999 0.4153999985 0.472424999
 O2 O 0.472424999 0.3346000015 0.472424999
 O2 O 0.27757499925 0.4153999985 0.27757499925
 O2 O 0.27757499925 0.4153999985 0.472424999
 O2 O 0.472424999 0.3346000015 0.27757499925
 O2 O 0.472424999 0.4153999985 0.27757499925
 O2 O 0.27757499925 0.3346000015 0.472424999
 O3 O 0.25 0.32417500025 0.32417500025
 O3 O 0.25 0.32417500025 0.32417500025
 O3 O 0.25 0.42582499975 0.42582499975
 O3 O 0.25 0.42582499975 0.42582499975
 O3 O 0.25 0.42582499975 0.32417500025
 O3 O 0.25 0.42582499975 0.32417500025
 O3 O 0.25 0.32417500025 0.42582499975
 O3 O 0.25 0.32417500025 0.42582499975
 O3 O 0.32417500025 0.25 0.32417500025
 O3 O 0.32417500025 0.25 0.32417500025
 O3 O 0.42582499975 0.25 0.42582499975
 O3 O 0.42582499975 0.25 0.42582499975
 O3 O 0.32417500025 0.25 0.42582499975
 O3 O 0.32417500025 0.25 0.42582499975
 O3 O 0.42582499975 0.25 0.32417500025
 O3 O 0.42582499975 0.25 0.32417500025
 O3 O 0.32417500025 0.32417500025 0.25
 O3 O 0.32417500025 0.32417500025 0.25
 O3 O 0.42582499975 0.42582499975 0.25
 O3 O 0.42582499975 0.42582499975 0.25
 O3 O 0.42582499975 0.32417500025 0.25
 O3 O 0.42582499975 0.32417500025 0.25
 O3 O 0.32417500025 0.42582499975 0.25
 O3 O 0.32417500025 0.42582499975 0.25
 O2 O 0.472424999 0.27757499925 0.3346000015
 O2 O 0.27757498625 0.27757499925 0.3346000015
 O2 O 0.472424999 0.472424999 0.4153999985
 O2 O 0.27757498625 0.472424999 0.4153999985
 O2 O 0.472424999 0.472424999 0.3346000015
 O2 O 0.27757498625 0.472424999 0.3346000015
 O2 O 0.472424999 0.27757499925 0.4153999985
 O2 O 0.27757498625 0.27757499925 0.4153999985
 O2 O 0.3346000015 0.472424999 0.27757499925
 O2 O 0.3346000015 0.27757498625 0.27757499925
 O2 O 0.4153999985 0.472424999 0.472424999
 O2 O 0.4153999985 0.27757498625 0.472424999
 O2 O 0.3346000015 0.472424999 0.472424999
 O2 O 0.3346000015 0.27757498625 0.472424999
 O2 O 0.4153999985 0.472424999 0.27757499925
 O2 O 0.4153999985 0.27757498625 0.27757499925
 O2 O 0.27757499925 0.3346000015 0.472424999
 O2 O 0.27757499925 0.3346000015 0.27757498625
 O2 O 0.472424999 0.4153999985 0.472424999
 O2 O 0.472424999 0.4153999985 0.27757498625
 O2 O 0.472424999 0.3346000015 0.472424999
 O2 O 0.472424999 0.3346000015 0.27757498625
 O2 O 0.27757499925 0.4153999985 0.472424999
 O2 O 0.27757499925 0.4153999985 0.27757498625
 O2 O 0.27757499925 0.472424999 0.4153999985
 O2 O 0.27757499925 0.27757498625 0.4153999985
 O2 O 0.472424999 0.472424999 0.3346000015
 O2 O 0.472424999 0.27757498625 0.3346000015
 O2 O 0.472424999 0.472424999 0.4153999985
 O2 O 0.472424999 0.27757498625 0.4153999985
 O2 O 0.27757499925 0.472424999 0.3346000015
 O2 O 0.27757499925 0.27757498625 0.3346000015
 O2 O 0.472424999 0.3346000015 0.472424999
 O2 O 0.27757498625 0.3346000015 0.472424999
 O2 O 0.472424999 0.4153999985 0.27757499925
 O2 O 0.27757498625 0.4153999985 0.27757499925
 O2 O 0.472424999 0.3346000015 0.27757499925
 O2 O 0.27757498625 0.3346000015 0.27757499925
 O2 O 0.472424999 0.4153999985 0.472424999
 O2 O 0.27757498625 0.4153999985 0.472424999
 O2 O 0.3346000015 0.27757499925 0.472424999
 O2 O 0.3346000015 0.27757499925 0.27757498625
 O2 O 0.4153999985 0.472424999 0.472424999
 O2 O 0.4153999985 0.472424999 0.27757498625
 O2 O 0.3346000015 0.472424999 0.472424999
 O2 O 0.3346000015 0.472424999 0.27757498625
 O2 O 0.4153999985 0.27757499925 0.472424999
 O2 O 0.4153999985 0.27757499925 0.27757498625
 T1 Si 0.25 0.29557500025 0.34210000175
 T1 Si 0.25 0.29557500025 0.34210000175
 T1 Si 0.25 0.454425007 0.4079000055
 T1 Si 0.25 0.454425007 0.4079000055
 T1 Si 0.25 0.454425007 0.34210000175
 T1 Si 0.25 0.454425007 0.34210000175
 T1 Si 0.25 0.29557500025 0.4079000055
 T1 Si 0.25 0.29557500025 0.4079000055
 T1 Si 0.34210000175 0.25 0.29557500025
 T1 Si 0.34210000175 0.25 0.29557500025
 T1 Si 0.4079000055 0.25 0.454425007
 T1 Si 0.4079000055 0.25 0.454425007
 T1 Si 0.34210000175 0.25 0.454425007
 T1 Si 0.34210000175 0.25 0.454425007
 T1 Si 0.4079000055 0.25 0.29557500025
 T1 Si 0.4079000055 0.25 0.29557500025
 T1 Si 0.29557500025 0.34210000175 0.25
 T1 Si 0.29557500025 0.34210000175 0.25
 T1 Si 0.454425007 0.4079000055 0.25
 T1 Si 0.454425007 0.4079000055 0.25
 T1 Si 0.454425007 0.34210000175 0.25
 T1 Si 0.454425007 0.34210000175 0.25
 T1 Si 0.29557500025 0.4079000055 0.25
 T1 Si 0.29557500025 0.4079000055 0.25
 T1 Si 0.29557500025 0.25 0.4079000055
 T1 Si 0.29557500025 0.25 0.4079000055
 T1 Si 0.454425007 0.25 0.34210000175
 T1 Si 0.454425007 0.25 0.34210000175
 T1 Si 0.454425007 0.25 0.4079000055
 T1 Si 0.454425007 0.25 0.4079000055
 T1 Si 0.29557500025 0.25 0.34210000175
 T1 Si 0.29557500025 0.25 0.34210000175
 T1 Si 0.25 0.34210000175 0.454425007
 T1 Si 0.25 0.34210000175 0.454425007
 T1 Si 0.25 0.4079000055 0.29557500025
 T1 Si 0.25 0.4079000055 0.29557500025
 T1 Si 0.25 0.34210000175 0.29557500025
 T1 Si 0.25 0.34210000175 0.29557500025
 T1 Si 0.25 0.4079000055 0.454425007
 T1 Si 0.25 0.4079000055 0.454425007
 T1 Si 0.34210000175 0.29557500025 0.25
 T1 Si 0.34210000175 0.29557500025 0.25
 T1 Si 0.4079000055 0.454425007 0.25
 T1 Si 0.4079000055 0.454425007 0.25
 T1 Si 0.34210000175 0.454425007 0.25
 T1 Si 0.34210000175 0.454425007 0.25
 T1 Si 0.4079000055 0.29557500025 0.25
 T1 Si 0.4079000055 0.29557500025 0.25
 O1 O 0.5 0.30305000025 0.375
 O1 O 0.5 0.30305000025 0.375
 O1 O 0.5 0.4469500035 0.375
 O1 O 0.5 0.4469500035 0.375
 O1 O 0.625 0.25 0.30305000025
 O1 O 0.625 0.25 0.30305000025
 O1 O 0.625 0.25 0.4469500035
 O1 O 0.625 0.25 0.4469500035
 O1 O 0.5530500002500001 0.375 0.25
 O1 O 0.5530500002500001 0.375 0.25
 O1 O 0.6969500035 0.375 0.25
 O1 O 0.6969500035 0.375 0.25
 O1 O 0.5530500002500001 0.25 0.375
 O1 O 0.5530500002500001 0.25 0.375
 O1 O 0.6969500035 0.25 0.375
 O1 O 0.6969500035 0.25 0.375
 O1 O 0.5 0.375 0.4469500035
 O1 O 0.5 0.375 0.4469500035
 O1 O 0.5 0.375 0.30305000025
 O1 O 0.5 0.375 0.30305000025
 O1 O 0.625 0.30305000025 0.25
 O1 O 0.625 0.30305000025 0.25
 O1 O 0.625 0.4469500035 0.25
 O1 O 0.625 0.4469500035 0.25
 O2 O 0.5275749992500001 0.27757499925 0.3346000015
 O2 O 0.722424999 0.472424999 0.4153999985
 O2 O 0.722424999 0.472424999 0.3346000015
 O2 O 0.5275749992500001 0.27757499925 0.4153999985
 O2 O 0.722424999 0.27757499925 0.4153999985
 O2 O 0.5275749992500001 0.472424999 0.3346000015
 O2 O 0.5275749992500001 0.472424999 0.4153999985
 O2 O 0.722424999 0.27757499925 0.3346000015
 O2 O 0.5846000015 0.27757499925 0.27757499925
 O2 O 0.6653999985 0.472424999 0.472424999
 O2 O 0.5846000015 0.472424999 0.472424999
 O2 O 0.6653999985 0.27757499925 0.27757499925
 O2 O 0.6653999985 0.472424999 0.27757499925
 O2 O 0.5846000015 0.27757499925 0.472424999
 O2 O 0.6653999985 0.27757499925 0.472424999
 O2 O 0.5846000015 0.472424999 0.27757499925
 O2 O 0.5275749992500001 0.3346000015 0.27757499925
 O2 O 0.722424999 0.4153999985 0.472424999
 O2 O 0.722424999 0.3346000015 0.472424999
 O2 O 0.5275749992500001 0.4153999985 0.27757499925
 O2 O 0.5275749992500001 0.4153999985 0.472424999
 O2 O 0.722424999 0.3346000015 0.27757499925
 O2 O 0.722424999 0.4153999985 0.27757499925
 O2 O 0.5275749992500001 0.3346000015 0.472424999
 O3 O 0.5 0.32417500025 0.32417500025
 O3 O 0.5 0.32417500025 0.32417500025
 O3 O 0.5 0.42582499975 0.42582499975
 O3 O 0.5 0.42582499975 0.42582499975
 O3 O 0.5 0.42582499975 0.32417500025
 O3 O 0.5 0.42582499975 0.32417500025
 O3 O 0.5 0.32417500025 0.42582499975
 O3 O 0.5 0.32417500025 0.42582499975
 O3 O 0.57417500025 0.25 0.32417500025
 O3 O 0.57417500025 0.25 0.32417500025
 O3 O 0.67582499975 0.25 0.42582499975
 O3 O 0.67582499975 0.25 0.42582499975
 O3 O 0.57417500025 0.25 0.42582499975
 O3 O 0.57417500025 0.25 0.42582499975
 O3 O 0.67582499975 0.25 0.32417500025
 O3 O 0.67582499975 0.25 0.32417500025
 O3 O 0.57417500025 0.32417500025 0.25
 O3 O 0.57417500025 0.32417500025 0.25
 O3 O 0.67582499975 0.42582499975 0.25
 O3 O 0.67582499975 0.42582499975 0.25
 O3 O 0.67582499975 0.32417500025 0.25
 O3 O 0.67582499975 0.32417500025 0.25
 O3 O 0.57417500025 0.42582499975 0.25
 O3 O 0.57417500025 0.42582499975 0.25
 O2 O 0.722424999 0.27757499925 0.3346000015
 O2 O 0.52757498625 0.27757499925 0.3346000015
 O2 O 0.722424999 0.472424999 0.4153999985
 O2 O 0.52757498625 0.472424999 0.4153999985
 O2 O 0.722424999 0.472424999 0.3346000015
 O2 O 0.52757498625 0.472424999 0.3346000015
 O2 O 0.722424999 0.27757499925 0.4153999985
 O2 O 0.52757498625 0.27757499925 0.4153999985
 O2 O 0.5846000015 0.472424999 0.27757499925
 O2 O 0.5846000015 0.27757498625 0.27757499925
 O2 O 0.6653999985 0.472424999 0.472424999
 O2 O 0.6653999985 0.27757498625 0.472424999
 O2 O 0.5846000015 0.472424999 0.472424999
 O2 O 0.5846000015 0.27757498625 0.472424999
 O2 O 0.6653999985 0.472424999 0.27757499925
 O2 O 0.6653999985 0.27757498625 0.27757499925
 O2 O 0.5275749992500001 0.3346000015 0.472424999
 O2 O 0.5275749992500001 0.3346000015 0.27757498625
 O2 O 0.722424999 0.4153999985 0.472424999
 O2 O 0.722424999 0.4153999985 0.27757498625
 O2 O 0.722424999 0.3346000015 0.472424999
 O2 O 0.722424999 0.3346000015 0.27757498625
 O2 O 0.5275749992500001 0.4153999985 0.472424999
 O2 O 0.5275749992500001 0.4153999985 0.27757498625
 O2 O 0.5275749992500001 0.472424999 0.4153999985
 O2 O 0.5275749992500001 0.27757498625 0.4153999985
 O2 O 0.722424999 0.472424999 0.3346000015
 O2 O 0.722424999 0.27757498625 0.3346000015
 O2 O 0.722424999 0.472424999 0.4153999985
 O2 O 0.722424999 0.27757498625 0.4153999985
 O2 O 0.5275749992500001 0.472424999 0.3346000015
 O2 O 0.5275749992500001 0.27757498625 0.3346000015
 O2 O 0.722424999 0.3346000015 0.472424999
 O2 O 0.52757498625 0.3346000015 0.472424999
 O2 O 0.722424999 0.4153999985 0.27757499925
 O2 O 0.52757498625 0.4153999985 0.27757499925
 O2 O 0.722424999 0.3346000015 0.27757499925
 O2 O 0.52757498625 0.3346000015 0.27757499925
 O2 O 0.722424999 0.4153999985 0.472424999
 O2 O 0.52757498625 0.4153999985 0.472424999
 O2 O 0.5846000015 0.27757499925 0.472424999
 O2 O 0.5846000015 0.27757499925 0.27757498625
 O2 O 0.6653999985 0.472424999 0.472424999
 O2 O 0.6653999985 0.472424999 0.27757498625
 O2 O 0.5846000015 0.472424999 0.472424999
 O2 O 0.5846000015 0.472424999 0.27757498625
 O2 O 0.6653999985 0.27757499925 0.472424999
 O2 O 0.6653999985 0.27757499925 0.27757498625
 T1 Si 0.5 0.29557500025 0.34210000175
 T1 Si 0.5 0.29557500025 0.34210000175
 T1 Si 0.5 0.454425007 0.4079000055
 T1 Si 0.5 0.454425007 0.4079000055
 T1 Si 0.5 0.454425007 0.34210000175
 T1 Si 0.5 0.454425007 0.34210000175
 T1 Si 0.5 0.29557500025 0.4079000055
 T1 Si 0.5 0.29557500025 0.4079000055
 T1 Si 0.59210000175 0.25 0.29557500025
 T1 Si 0.59210000175 0.25 0.29557500025
 T1 Si 0.6579000054999999 0.25 0.454425007
 T1 Si 0.6579000054999999 0.25 0.454425007
 T1 Si 0.59210000175 0.25 0.454425007
 T1 Si 0.59210000175 0.25 0.454425007
 T1 Si 0.6579000054999999 0.25 0.29557500025
 T1 Si 0.6579000054999999 0.25 0.29557500025
 T1 Si 0.5455750002499999 0.34210000175 0.25
 T1 Si 0.5455750002499999 0.34210000175 0.25
 T1 Si 0.704425007 0.4079000055 0.25
 T1 Si 0.704425007 0.4079000055 0.25
 T1 Si 0.704425007 0.34210000175 0.25
 T1 Si 0.704425007 0.34210000175 0.25
 T1 Si 0.5455750002499999 0.4079000055 0.25
 T1 Si 0.5455750002499999 0.4079000055 0.25
 T1 Si 0.5455750002499999 0.25 0.4079000055
 T1 Si 0.5455750002499999 0.25 0.4079000055
 T1 Si 0.704425007 0.25 0.34210000175
 T1 Si 0.704425007 0.25 0.34210000175
 T1 Si 0.704425007 0.25 0.4079000055
 T1 Si 0.704425007 0.25 0.4079000055
 T1 Si 0.5455750002499999 0.25 0.34210000175
 T1 Si 0.5455750002499999 0.25 0.34210000175
 T1 Si 0.5 0.34210000175 0.454425007
 T1 Si 0.5 0.34210000175 0.454425007
 T1 Si 0.5 0.4079000055 0.29557500025
 T1 Si 0.5 0.4079000055 0.29557500025
 T1 Si 0.5 0.34210000175 0.29557500025
 T1 Si 0.5 0.34210000175 0.29557500025
 T1 Si 0.5 0.4079000055 0.454425007
 T1 Si 0.5 0.4079000055 0.454425007
 T1 Si 0.59210000175 0.29557500025 0.25
 T1 Si 0.59210000175 0.29557500025 0.25
 T1 Si 0.6579000054999999 0.454425007 0.25
 T1 Si 0.6579000054999999 0.454425007 0.25
 T1 Si 0.59210000175 0.454425007 0.25
 T1 Si 0.59210000175 0.454425007 0.25
 T1 Si 0.6579000054999999 0.29557500025 0.25
 T1 Si 0.6579000054999999 0.29557500025 0.25
 O1 O 0.75 0.30305000025 0.375
 O1 O 0.75 0.30305000025 0.375
 O1 O 0.75 0.4469500035 0.375
 O1 O 0.75 0.4469500035 0.375
 O1 O 0.875 0.25 0.30305000025
 O1 O 0.875 0.25 0.30305000025
 O1 O 0.875 0.25 0.4469500035
 O1 O 0.875 0.25 0.4469500035
 O1 O 0.8030500002500001 0.375 0.25
 O1 O 0.8030500002500001 0.375 0.25
 O1 O 0.9469500035 0.375 0.25
 O1 O 0.9469500035 0.375 0.25
 O1 O 0.8030500002500001 0.25 0.375
 O1 O 0.8030500002500001 0.25 0.375
 O1 O 0.9469500035 0.25 0.375
 O1 O 0.9469500035 0.25 0.375
 O1 O 0.75 0.375 0.4469500035
 O1 O 0.75 0.375 0.4469500035
 O1 O 0.75 0.375 0.30305000025
 O1 O 0.75 0.375 0.30305000025
 O1 O 0.875 0.30305000025 0.25
 O1 O 0.875 0.30305000025 0.25
 O1 O 0.875 0.4469500035 0.25
 O1 O 0.875 0.4469500035 0.25
 O2 O 0.7775749992500001 0.27757499925 0.3346000015
 O2 O 0.972424999 0.472424999 0.4153999985
 O2 O 0.972424999 0.472424999 0.3346000015
 O2 O 0.7775749992500001 0.27757499925 0.4153999985
 O2 O 0.972424999 0.27757499925 0.4153999985
 O2 O 0.7775749992500001 0.472424999 0.3346000015
 O2 O 0.7775749992500001 0.472424999 0.4153999985
 O2 O 0.972424999 0.27757499925 0.3346000015
 O2 O 0.8346000015 0.27757499925 0.27757499925
 O2 O 0.9153999985 0.472424999 0.472424999
 O2 O 0.8346000015 0.472424999 0.472424999
 O2 O 0.9153999985 0.27757499925 0.27757499925
 O2 O 0.9153999985 0.472424999 0.27757499925
 O2 O 0.8346000015 0.27757499925 0.472424999
 O2 O 0.9153999985 0.27757499925 0.472424999
 O2 O 0.8346000015 0.472424999 0.27757499925
 O2 O 0.7775749992500001 0.3346000015 0.27757499925
 O2 O 0.972424999 0.4153999985 0.472424999
 O2 O 0.972424999 0.3346000015 0.472424999
 O2 O 0.7775749992500001 0.4153999985 0.27757499925
 O2 O 0.7775749992500001 0.4153999985 0.472424999
 O2 O 0.972424999 0.3346000015 0.27757499925
 O2 O 0.972424999 0.4153999985 0.27757499925
 O2 O 0.7775749992500001 0.3346000015 0.472424999
 O3 O 0.75 0.32417500025 0.32417500025
 O3 O 0.75 0.32417500025 0.32417500025
 O3 O 0.75 0.42582499975 0.42582499975
 O3 O 0.75 0.42582499975 0.42582499975
 O3 O 0.75 0.42582499975 0.32417500025
 O3 O 0.75 0.42582499975 0.32417500025
 O3 O 0.75 0.32417500025 0.42582499975
 O3 O 0.75 0.32417500025 0.42582499975
 O3 O 0.82417500025 0.25 0.32417500025
 O3 O 0.82417500025 0.25 0.32417500025
 O3 O 0.92582499975 0.25 0.42582499975
 O3 O 0.92582499975 0.25 0.42582499975
 O3 O 0.82417500025 0.25 0.42582499975
 O3 O 0.82417500025 0.25 0.42582499975
 O3 O 0.92582499975 0.25 0.32417500025
 O3 O 0.92582499975 0.25 0.32417500025
 O3 O 0.82417500025 0.32417500025 0.25
 O3 O 0.82417500025 0.32417500025 0.25
 O3 O 0.92582499975 0.42582499975 0.25
 O3 O 0.92582499975 0.42582499975 0.25
 O3 O 0.92582499975 0.32417500025 0.25
 O3 O 0.92582499975 0.32417500025 0.25
 O3 O 0.82417500025 0.42582499975 0.25
 O3 O 0.82417500025 0.42582499975 0.25
 O2 O 0.972424999 0.27757499925 0.3346000015
 O2 O 0.77757498625 0.27757499925 0.3346000015
 O2 O 0.972424999 0.472424999 0.4153999985
 O2 O 0.77757498625 0.472424999 0.4153999985
 O2 O 0.972424999 0.472424999 0.3346000015
 O2 O 0.77757498625 0.472424999 0.3346000015
 O2 O 0.972424999 0.27757499925 0.4153999985
 O2 O 0.77757498625 0.27757499925 0.4153999985
 O2 O 0.8346000015 0.472424999 0.27757499925
 O2 O 0.8346000015 0.27757498625 0.27757499925
 O2 O 0.9153999985 0.472424999 0.472424999
 O2 O 0.9153999985 0.27757498625 0.472424999
 O2 O 0.8346000015 0.472424999 0.472424999
 O2 O 0.8346000015 0.27757498625 0.472424999
 O2 O 0.9153999985 0.472424999 0.27757499925
 O2 O 0.9153999985 0.27757498625 0.27757499925
 O2 O 0.7775749992500001 0.3346000015 0.472424999
 O2 O 0.7775749992500001 0.3346000015 0.27757498625
 O2 O 0.972424999 0.4153999985 0.472424999
 O2 O 0.972424999 0.4153999985 0.27757498625
 O2 O 0.972424999 0.3346000015 0.472424999
 O2 O 0.972424999 0.3346000015 0.27757498625
 O2 O 0.7775749992500001 0.4153999985 0.472424999
 O2 O 0.7775749992500001 0.4153999985 0.27757498625
 O2 O 0.7775749992500001 0.472424999 0.4153999985
 O2 O 0.7775749992500001 0.27757498625 0.4153999985
 O2 O 0.972424999 0.472424999 0.3346000015
 O2 O 0.972424999 0.27757498625 0.3346000015
 O2 O 0.972424999 0.472424999 0.4153999985
 O2 O 0.972424999 0.27757498625 0.4153999985
 O2 O 0.7775749992500001 0.472424999 0.3346000015
 O2 O 0.7775749992500001 0.27757498625 0.3346000015
 O2 O 0.972424999 0.3346000015 0.472424999
 O2 O 0.77757498625 0.3346000015 0.472424999
 O2 O 0.972424999 0.4153999985 0.27757499925
 O2 O 0.77757498625 0.4153999985 0.27757499925
 O2 O 0.972424999 0.3346000015 0.27757499925
 O2 O 0.77757498625 0.3346000015 0.27757499925
 O2 O 0.972424999 0.4153999985 0.472424999
 O2 O 0.77757498625 0.4153999985 0.472424999
 O2 O 0.8346000015 0.27757499925 0.472424999
 O2 O 0.8346000015 0.27757499925 0.27757498625
 O2 O 0.9153999985 0.472424999 0.472424999
 O2 O 0.9153999985 0.472424999 0.27757498625
 O2 O 0.8346000015 0.472424999 0.472424999
 O2 O 0.8346000015 0.472424999 0.27757498625
 O2 O 0.9153999985 0.27757499925 0.472424999
 O2 O 0.9153999985 0.27757499925 0.27757498625
 T1 Si 0.75 0.29557500025 0.34210000175
 T1 Si 0.75 0.29557500025 0.34210000175
 T1 Si 0.75 0.454425007 0.4079000055
 T1 Si 0.75 0.454425007 0.4079000055
 T1 Si 0.75 0.454425007 0.34210000175
 T1 Si 0.75 0.454425007 0.34210000175
 T1 Si 0.75 0.29557500025 0.4079000055
 T1 Si 0.75 0.29557500025 0.4079000055
 T1 Si 0.84210000175 0.25 0.29557500025
 T1 Si 0.84210000175 0.25 0.29557500025
 T1 Si 0.9079000054999999 0.25 0.454425007
 T1 Si 0.9079000054999999 0.25 0.454425007
 T1 Si 0.84210000175 0.25 0.454425007
 T1 Si 0.84210000175 0.25 0.454425007
 T1 Si 0.9079000054999999 0.25 0.29557500025
 T1 Si 0.9079000054999999 0.25 0.29557500025
 T1 Si 0.7955750002499999 0.34210000175 0.25
 T1 Si 0.7955750002499999 0.34210000175 0.25
 T1 Si 0.954425007 0.4079000055 0.25
 T1 Si 0.954425007 0.4079000055 0.25
 T1 Si 0.954425007 0.34210000175 0.25
 T1 Si 0.954425007 0.34210000175 0.25
 T1 Si 0.7955750002499999 0.4079000055 0.25
 T1 Si 0.7955750002499999 0.4079000055 0.25
 T1 Si 0.7955750002499999 0.25 0.4079000055
 T1 Si 0.7955750002499999 0.25 0.4079000055
 T1 Si 0.954425007 0.25 0.34210000175
 T1 Si 0.954425007 0.25 0.34210000175
 T1 Si 0.954425007 0.25 0.4079000055
 T1 Si 0.954425007 0.25 0.4079000055
 T1 Si 0.7955750002499999 0.25 0.34210000175
 T1 Si 0.7955750002499999 0.25 0.34210000175
 T1 Si 0.75 0.34210000175 0.454425007
 T1 Si 0.75 0.34210000175 0.454425007
 T1 Si 0.75 0.4079000055 0.29557500025
 T1 Si 0.75 0.4079000055 0.29557500025
 T1 Si 0.75 0.34210000175 0.29557500025
 T1 Si 0.75 0.34210000175 0.29557500025
 T1 Si 0.75 0.4079000055 0.454425007
 T1 Si 0.75 0.4079000055 0.454425007
 T1 Si 0.84210000175 0.29557500025 0.25
 T1 Si 0.84210000175 0.29557500025 0.25
 T1 Si 0.9079000054999999 0.454425007 0.25
 T1 Si 0.9079000054999999 0.454425007 0.25
 T1 Si 0.84210000175 0.454425007 0.25
 T1 Si 0.84210000175 0.454425007 0.25
 T1 Si 0.9079000054999999 0.29557500025 0.25
 T1 Si 0.9079000054999999 0.29557500025 0.25
 O1 O 0.0 0.5530500002500001 0.375
 O1 O 0.0 0.5530500002500001 0.375
 O1 O 0.0 0.6969500035 0.375
 O1 O 0.0 0.6969500035 0.375
 O1 O 0.125 0.5 0.30305000025
 O1 O 0.125 0.5 0.30305000025
 O1 O 0.125 0.5 0.4469500035
 O1 O 0.125 0.5 0.4469500035
 O1 O 0.05305000025 0.625 0.25
 O1 O 0.05305000025 0.625 0.25
 O1 O 0.1969500035 0.625 0.25
 O1 O 0.1969500035 0.625 0.25
 O1 O 0.05305000025 0.5 0.375
 O1 O 0.05305000025 0.5 0.375
 O1 O 0.1969500035 0.5 0.375
 O1 O 0.1969500035 0.5 0.375
 O1 O 0.0 0.625 0.4469500035
 O1 O 0.0 0.625 0.4469500035
 O1 O 0.0 0.625 0.30305000025
 O1 O 0.0 0.625 0.30305000025
 O1 O 0.125 0.5530500002500001 0.25
 O1 O 0.125 0.5530500002500001 0.25
 O1 O 0.125 0.6969500035 0.25
 O1 O 0.125 0.6969500035 0.25
 O2 O 0.02757499925 0.5275749992500001 0.3346000015
 O2 O 0.222424999 0.722424999 0.4153999985
 O2 O 0.222424999 0.722424999 0.3346000015
 O2 O 0.02757499925 0.5275749992500001 0.4153999985
 O2 O 0.222424999 0.5275749992500001 0.4153999985
 O2 O 0.02757499925 0.722424999 0.3346000015
 O2 O 0.02757499925 0.722424999 0.4153999985
 O2 O 0.222424999 0.5275749992500001 0.3346000015
 O2 O 0.0846000015 0.5275749992500001 0.27757499925
 O2 O 0.1653999985 0.722424999 0.472424999
 O2 O 0.0846000015 0.722424999 0.472424999
 O2 O 0.1653999985 0.5275749992500001 0.27757499925
 O2 O 0.1653999985 0.722424999 0.27757499925
 O2 O 0.0846000015 0.5275749992500001 0.472424999
 O2 O 0.1653999985 0.5275749992500001 0.472424999
 O2 O 0.0846000015 0.722424999 0.27757499925
 O2 O 0.02757499925 0.5846000015 0.27757499925
 O2 O 0.222424999 0.6653999985 0.472424999
 O2 O 0.222424999 0.5846000015 0.472424999
 O2 O 0.02757499925 0.6653999985 0.27757499925
 O2 O 0.02757499925 0.6653999985 0.472424999
 O2 O 0.222424999 0.5846000015 0.27757499925
 O2 O 0.222424999 0.6653999985 0.27757499925
 O2 O 0.02757499925 0.5846000015 0.472424999
 O3 O 0.0 0.57417500025 0.32417500025
 O3 O 0.0 0.57417500025 0.32417500025
 O3 O 0.0 0.67582499975 0.42582499975
 O3 O 0.0 0.67582499975 0.42582499975
 O3 O 0.0 0.67582499975 0.32417500025
 O3 O 0.0 0.67582499975 0.32417500025
 O3 O 0.0 0.57417500025 0.42582499975
 O3 O 0.0 0.57417500025 0.42582499975
 O3 O 0.07417500025 0.5 0.32417500025
 O3 O 0.07417500025 0.5 0.32417500025
 O3 O 0.17582499975 0.5 0.42582499975
 O3 O 0.17582499975 0.5 0.42582499975
 O3 O 0.07417500025 0.5 0.42582499975
 O3 O 0.07417500025 0.5 0.42582499975
 O3 O 0.17582499975 0.5 0.32417500025
 O3 O 0.17582499975 0.5 0.32417500025
 O3 O 0.07417500025 0.57417500025 0.25
 O3 O 0.07417500025 0.57417500025 0.25
 O3 O 0.17582499975 0.67582499975 0.25
 O3 O 0.17582499975 0.67582499975 0.25
 O3 O 0.17582499975 0.57417500025 0.25
 O3 O 0.17582499975 0.57417500025 0.25
 O3 O 0.07417500025 0.67582499975 0.25
 O3 O 0.07417500025 0.67582499975 0.25
 O2 O 0.222424999 0.5275749992500001 0.3346000015
 O2 O 0.02757498625 0.5275749992500001 0.3346000015
 O2 O 0.222424999 0.722424999 0.4153999985
 O2 O 0.02757498625 0.722424999 0.4153999985
 O2 O 0.222424999 0.722424999 0.3346000015
 O2 O 0.02757498625 0.722424999 0.3346000015
 O2 O 0.222424999 0.5275749992500001 0.4153999985
 O2 O 0.02757498625 0.5275749992500001 0.4153999985
 O2 O 0.0846000015 0.722424999 0.27757499925
 O2 O 0.0846000015 0.52757498625 0.27757499925
 O2 O 0.1653999985 0.722424999 0.472424999
 O2 O 0.1653999985 0.52757498625 0.472424999
 O2 O 0.0846000015 0.722424999 0.472424999
 O2 O 0.0846000015 0.52757498625 0.472424999
 O2 O 0.1653999985 0.722424999 0.27757499925
 O2 O 0.1653999985 0.52757498625 0.27757499925
 O2 O 0.02757499925 0.5846000015 0.472424999
 O2 O 0.02757499925 0.5846000015 0.27757498625
 O2 O 0.222424999 0.6653999985 0.472424999
 O2 O 0.222424999 0.6653999985 0.27757498625
 O2 O 0.222424999 0.5846000015 0.472424999
 O2 O 0.222424999 0.5846000015 0.27757498625
 O2 O 0.02757499925 0.6653999985 0.472424999
 O2 O 0.02757499925 0.6653999985 0.27757498625
 O2 O 0.02757499925 0.722424999 0.4153999985
 O2 O 0.02757499925 0.52757498625 0.4153999985
 O2 O 0.222424999 0.722424999 0.3346000015
 O2 O 0.222424999 0.52757498625 0.3346000015
 O2 O 0.222424999 0.722424999 0.4153999985
 O2 O 0.222424999 0.52757498625 0.4153999985
 O2 O 0.02757499925 0.722424999 0.3346000015
 O2 O 0.02757499925 0.52757498625 0.3346000015
 O2 O 0.222424999 0.5846000015 0.472424999
 O2 O 0.02757498625 0.5846000015 0.472424999
 O2 O 0.222424999 0.6653999985 0.27757499925
 O2 O 0.02757498625 0.6653999985 0.27757499925
 O2 O 0.222424999 0.5846000015 0.27757499925
 O2 O 0.02757498625 0.5846000015 0.27757499925
 O2 O 0.222424999 0.6653999985 0.472424999
 O2 O 0.02757498625 0.6653999985 0.472424999
 O2 O 0.0846000015 0.5275749992500001 0.472424999
 O2 O 0.0846000015 0.5275749992500001 0.27757498625
 O2 O 0.1653999985 0.722424999 0.472424999
 O2 O 0.1653999985 0.722424999 0.27757498625
 O2 O 0.0846000015 0.722424999 0.472424999
 O2 O 0.0846000015 0.722424999 0.27757498625
 O2 O 0.1653999985 0.5275749992500001 0.472424999
 O2 O 0.1653999985 0.5275749992500001 0.27757498625
 T1 Si 0.0 0.5455750002499999 0.34210000175
 T1 Si 0.0 0.5455750002499999 0.34210000175
 T1 Si 0.0 0.704425007 0.4079000055
 T1 Si 0.0 0.704425007 0.4079000055
 T1 Si 0.0 0.704425007 0.34210000175
 T1 Si 0.0 0.704425007 0.34210000175
 T1 Si 0.0 0.5455750002499999 0.4079000055
 T1 Si 0.0 0.5455750002499999 0.4079000055
 T1 Si 0.09210000175 0.5 0.29557500025
 T1 Si 0.09210000175 0.5 0.29557500025
 T1 Si 0.1579000055 0.5 0.454425007
 T1 Si 0.1579000055 0.5 0.454425007
 T1 Si 0.09210000175 0.5 0.454425007
 T1 Si 0.09210000175 0.5 0.454425007
 T1 Si 0.1579000055 0.5 0.29557500025
 T1 Si 0.1579000055 0.5 0.29557500025
 T1 Si 0.04557500025 0.59210000175 0.25
 T1 Si 0.04557500025 0.59210000175 0.25
 T1 Si 0.204425007 0.6579000054999999 0.25
 T1 Si 0.204425007 0.6579000054999999 0.25
 T1 Si 0.204425007 0.59210000175 0.25
 T1 Si 0.204425007 0.59210000175 0.25
 T1 Si 0.04557500025 0.6579000054999999 0.25
 T1 Si 0.04557500025 0.6579000054999999 0.25
 T1 Si 0.04557500025 0.5 0.4079000055
 T1 Si 0.04557500025 0.5 0.4079000055
 T1 Si 0.204425007 0.5 0.34210000175
 T1 Si 0.204425007 0.5 0.34210000175
 T1 Si 0.204425007 0.5 0.4079000055
 T1 Si 0.204425007 0.5 0.4079000055
 T1 Si 0.04557500025 0.5 0.34210000175
 T1 Si 0.04557500025 0.5 0.34210000175
 T1 Si 0.0 0.59210000175 0.454425007
 T1 Si 0.0 0.59210000175 0.454425007
 T1 Si 0.0 0.6579000054999999 0.29557500025
 T1 Si 0.0 0.6579000054999999 0.29557500025
 T1 Si 0.0 0.59210000175 0.29557500025
 T1 Si 0.0 0.59210000175 0.29557500025
 T1 Si 0.0 0.6579000054999999 0.454425007
 T1 Si 0.0 0.6579000054999999 0.454425007
 T1 Si 0.09210000175 0.5455750002499999 0.25
 T1 Si 0.09210000175 0.5455750002499999 0.25
 T1 Si 0.1579000055 0.704425007 0.25
 T1 Si 0.1579000055 0.704425007 0.25
 T1 Si 0.09210000175 0.704425007 0.25
 T1 Si 0.09210000175 0.704425007 0.25
 T1 Si 0.1579000055 0.5455750002499999 0.25
 T1 Si 0.1579000055 0.5455750002499999 0.25
 O1 O 0.25 0.5530500002500001 0.375
 O1 O 0.25 0.5530500002500001 0.375
 O1 O 0.25 0.6969500035 0.375
 O1 O 0.25 0.6969500035 0.375
 O1 O 0.375 0.5 0.30305000025
 O1 O 0.375 0.5 0.30305000025
 O1 O 0.375 0.5 0.4469500035
 O1 O 0.375 0.5 0.4469500035
 O1 O 0.30305000025 0.625 0.25
 O1 O 0.30305000025 0.625 0.25
 O1 O 0.4469500035 0.625 0.25
 O1 O 0.4469500035 0.625 0.25
 O1 O 0.30305000025 0.5 0.375
 O1 O 0.30305000025 0.5 0.375
 O1 O 0.4469500035 0.5 0.375
 O1 O 0.4469500035 0.5 0.375
 O1 O 0.25 0.625 0.4469500035
 O1 O 0.25 0.625 0.4469500035
 O1 O 0.25 0.625 0.30305000025
 O1 O 0.25 0.625 0.30305000025
 O1 O 0.375 0.5530500002500001 0.25
 O1 O 0.375 0.5530500002500001 0.25
 O1 O 0.375 0.6969500035 0.25
 O1 O 0.375 0.6969500035 0.25
 O2 O 0.27757499925 0.5275749992500001 0.3346000015
 O2 O 0.472424999 0.722424999 0.4153999985
 O2 O 0.472424999 0.722424999 0.3346000015
 O2 O 0.27757499925 0.5275749992500001 0.4153999985
 O2 O 0.472424999 0.5275749992500001 0.4153999985
 O2 O 0.27757499925 0.722424999 0.3346000015
 O2 O 0.27757499925 0.722424999 0.4153999985
 O2 O 0.472424999 0.5275749992500001 0.3346000015
 O2 O 0.3346000015 0.5275749992500001 0.27757499925
 O2 O 0.4153999985 0.722424999 0.472424999
 O2 O 0.3346000015 0.722424999 0.472424999
 O2 O 0.4153999985 0.5275749992500001 0.27757499925
 O2 O 0.4153999985 0.722424999 0.27757499925
 O2 O 0.3346000015 0.5275749992500001 0.472424999
 O2 O 0.4153999985 0.5275749992500001 0.472424999
 O2 O 0.3346000015 0.722424999 0.27757499925
 O2 O 0.27757499925 0.5846000015 0.27757499925
 O2 O 0.472424999 0.6653999985 0.472424999
 O2 O 0.472424999 0.5846000015 0.472424999
 O2 O 0.27757499925 0.6653999985 0.27757499925
 O2 O 0.27757499925 0.6653999985 0.472424999
 O2 O 0.472424999 0.5846000015 0.27757499925
 O2 O 0.472424999 0.6653999985 0.27757499925
 O2 O 0.27757499925 0.5846000015 0.472424999
 O3 O 0.25 0.57417500025 0.32417500025
 O3 O 0.25 0.57417500025 0.32417500025
 O3 O 0.25 0.67582499975 0.42582499975
 O3 O 0.25 0.67582499975 0.42582499975
 O3 O 0.25 0.67582499975 0.32417500025
 O3 O 0.25 0.67582499975 0.32417500025
 O3 O 0.25 0.57417500025 0.42582499975
 O3 O 0.25 0.57417500025 0.42582499975
 O3 O 0.32417500025 0.5 0.32417500025
 O3 O 0.32417500025 0.5 0.32417500025
 O3 O 0.42582499975 0.5 0.42582499975
 O3 O 0.42582499975 0.5 0.42582499975
 O3 O 0.32417500025 0.5 0.42582499975
 O3 O 0.32417500025 0.5 0.42582499975
 O3 O 0.42582499975 0.5 0.32417500025
 O3 O 0.42582499975 0.5 0.32417500025
 O3 O 0.32417500025 0.57417500025 0.25
 O3 O 0.32417500025 0.57417500025 0.25
 O3 O 0.42582499975 0.67582499975 0.25
 O3 O 0.42582499975 0.67582499975 0.25
 O3 O 0.42582499975 0.57417500025 0.25
 O3 O 0.42582499975 0.57417500025 0.25
 O3 O 0.32417500025 0.67582499975 0.25
 O3 O 0.32417500025 0.67582499975 0.25
 O2 O 0.472424999 0.5275749992500001 0.3346000015
 O2 O 0.27757498625 0.5275749992500001 0.3346000015
 O2 O 0.472424999 0.722424999 0.4153999985
 O2 O 0.27757498625 0.722424999 0.4153999985
 O2 O 0.472424999 0.722424999 0.3346000015
 O2 O 0.27757498625 0.722424999 0.3346000015
 O2 O 0.472424999 0.5275749992500001 0.4153999985
 O2 O 0.27757498625 0.5275749992500001 0.4153999985
 O2 O 0.3346000015 0.722424999 0.27757499925
 O2 O 0.3346000015 0.52757498625 0.27757499925
 O2 O 0.4153999985 0.722424999 0.472424999
 O2 O 0.4153999985 0.52757498625 0.472424999
 O2 O 0.3346000015 0.722424999 0.472424999
 O2 O 0.3346000015 0.52757498625 0.472424999
 O2 O 0.4153999985 0.722424999 0.27757499925
 O2 O 0.4153999985 0.52757498625 0.27757499925
 O2 O 0.27757499925 0.5846000015 0.472424999
 O2 O 0.27757499925 0.5846000015 0.27757498625
 O2 O 0.472424999 0.6653999985 0.472424999
 O2 O 0.472424999 0.6653999985 0.27757498625
 O2 O 0.472424999 0.5846000015 0.472424999
 O2 O 0.472424999 0.5846000015 0.27757498625
 O2 O 0.27757499925 0.6653999985 0.472424999
 O2 O 0.27757499925 0.6653999985 0.27757498625
 O2 O 0.27757499925 0.722424999 0.4153999985
 O2 O 0.27757499925 0.52757498625 0.4153999985
 O2 O 0.472424999 0.722424999 0.3346000015
 O2 O 0.472424999 0.52757498625 0.3346000015
 O2 O 0.472424999 0.722424999 0.4153999985
 O2 O 0.472424999 0.52757498625 0.4153999985
 O2 O 0.27757499925 0.722424999 0.3346000015
 O2 O 0.27757499925 0.52757498625 0.3346000015
 O2 O 0.472424999 0.5846000015 0.472424999
 O2 O 0.27757498625 0.5846000015 0.472424999
 O2 O 0.472424999 0.6653999985 0.27757499925
 O2 O 0.27757498625 0.6653999985 0.27757499925
 O2 O 0.472424999 0.5846000015 0.27757499925
 O2 O 0.27757498625 0.5846000015 0.27757499925
 O2 O 0.472424999 0.6653999985 0.472424999
 O2 O 0.27757498625 0.6653999985 0.472424999
 O2 O 0.3346000015 0.5275749992500001 0.472424999
 O2 O 0.3346000015 0.5275749992500001 0.27757498625
 O2 O 0.4153999985 0.722424999 0.472424999
 O2 O 0.4153999985 0.722424999 0.27757498625
 O2 O 0.3346000015 0.722424999 0.472424999
 O2 O 0.3346000015 0.722424999 0.27757498625
 O2 O 0.4153999985 0.5275749992500001 0.472424999
 O2 O 0.4153999985 0.5275749992500001 0.27757498625
 T1 Si 0.25 0.5455750002499999 0.34210000175
 T1 Si 0.25 0.5455750002499999 0.34210000175
 T1 Si 0.25 0.704425007 0.4079000055
 T1 Si 0.25 0.704425007 0.4079000055
 T1 Si 0.25 0.704425007 0.34210000175
 T1 Si 0.25 0.704425007 0.34210000175
 T1 Si 0.25 0.5455750002499999 0.4079000055
 T1 Si 0.25 0.5455750002499999 0.4079000055
 T1 Si 0.34210000175 0.5 0.29557500025
 T1 Si 0.34210000175 0.5 0.29557500025
 T1 Si 0.4079000055 0.5 0.454425007
 T1 Si 0.4079000055 0.5 0.454425007
 T1 Si 0.34210000175 0.5 0.454425007
 T1 Si 0.34210000175 0.5 0.454425007
 T1 Si 0.4079000055 0.5 0.29557500025
 T1 Si 0.4079000055 0.5 0.29557500025
 T1 Si 0.29557500025 0.59210000175 0.25
 T1 Si 0.29557500025 0.59210000175 0.25
 T1 Si 0.454425007 0.6579000054999999 0.25
 T1 Si 0.454425007 0.6579000054999999 0.25
 T1 Si 0.454425007 0.59210000175 0.25
 T1 Si 0.454425007 0.59210000175 0.25
 T1 Si 0.29557500025 0.6579000054999999 0.25
 T1 Si 0.29557500025 0.6579000054999999 0.25
 T1 Si 0.29557500025 0.5 0.4079000055
 T1 Si 0.29557500025 0.5 0.4079000055
 T1 Si 0.454425007 0.5 0.34210000175
 T1 Si 0.454425007 0.5 0.34210000175
 T1 Si 0.454425007 0.5 0.4079000055
 T1 Si 0.454425007 0.5 0.4079000055
 T1 Si 0.29557500025 0.5 0.34210000175
 T1 Si 0.29557500025 0.5 0.34210000175
 T1 Si 0.25 0.59210000175 0.454425007
 T1 Si 0.25 0.59210000175 0.454425007
 T1 Si 0.25 0.6579000054999999 0.29557500025
 T1 Si 0.25 0.6579000054999999 0.29557500025
 T1 Si 0.25 0.59210000175 0.29557500025
 T1 Si 0.25 0.59210000175 0.29557500025
 T1 Si 0.25 0.6579000054999999 0.454425007
 T1 Si 0.25 0.6579000054999999 0.454425007
 T1 Si 0.34210000175 0.5455750002499999 0.25
 T1 Si 0.34210000175 0.5455750002499999 0.25
 T1 Si 0.4079000055 0.704425007 0.25
 T1 Si 0.4079000055 0.704425007 0.25
 T1 Si 0.34210000175 0.704425007 0.25
 T1 Si 0.34210000175 0.704425007 0.25
 T1 Si 0.4079000055 0.5455750002499999 0.25
 T1 Si 0.4079000055 0.5455750002499999 0.25
 O1 O 0.5 0.5530500002500001 0.375
 O1 O 0.5 0.5530500002500001 0.375
 O1 O 0.5 0.6969500035 0.375
 O1 O 0.5 0.6969500035 0.375
 O1 O 0.625 0.5 0.30305000025
 O1 O 0.625 0.5 0.30305000025
 O1 O 0.625 0.5 0.4469500035
 O1 O 0.625 0.5 0.4469500035
 O1 O 0.5530500002500001 0.625 0.25
 O1 O 0.5530500002500001 0.625 0.25
 O1 O 0.6969500035 0.625 0.25
 O1 O 0.6969500035 0.625 0.25
 O1 O 0.5530500002500001 0.5 0.375
 O1 O 0.5530500002500001 0.5 0.375
 O1 O 0.6969500035 0.5 0.375
 O1 O 0.6969500035 0.5 0.375
 O1 O 0.5 0.625 0.4469500035
 O1 O 0.5 0.625 0.4469500035
 O1 O 0.5 0.625 0.30305000025
 O1 O 0.5 0.625 0.30305000025
 O1 O 0.625 0.5530500002500001 0.25
 O1 O 0.625 0.5530500002500001 0.25
 O1 O 0.625 0.6969500035 0.25
 O1 O 0.625 0.6969500035 0.25
 O2 O 0.5275749992500001 0.5275749992500001 0.3346000015
 O2 O 0.722424999 0.722424999 0.4153999985
 O2 O 0.722424999 0.722424999 0.3346000015
 O2 O 0.5275749992500001 0.5275749992500001 0.4153999985
 O2 O 0.722424999 0.5275749992500001 0.4153999985
 O2 O 0.5275749992500001 0.722424999 0.3346000015
 O2 O 0.5275749992500001 0.722424999 0.4153999985
 O2 O 0.722424999 0.5275749992500001 0.3346000015
 O2 O 0.5846000015 0.5275749992500001 0.27757499925
 O2 O 0.6653999985 0.722424999 0.472424999
 O2 O 0.5846000015 0.722424999 0.472424999
 O2 O 0.6653999985 0.5275749992500001 0.27757499925
 O2 O 0.6653999985 0.722424999 0.27757499925
 O2 O 0.5846000015 0.5275749992500001 0.472424999
 O2 O 0.6653999985 0.5275749992500001 0.472424999
 O2 O 0.5846000015 0.722424999 0.27757499925
 O2 O 0.5275749992500001 0.5846000015 0.27757499925
 O2 O 0.722424999 0.6653999985 0.472424999
 O2 O 0.722424999 0.5846000015 0.472424999
 O2 O 0.5275749992500001 0.6653999985 0.27757499925
 O2 O 0.5275749992500001 0.6653999985 0.472424999
 O2 O 0.722424999 0.5846000015 0.27757499925
 O2 O 0.722424999 0.6653999985 0.27757499925
 O2 O 0.5275749992500001 0.5846000015 0.472424999
 O3 O 0.5 0.57417500025 0.32417500025
 O3 O 0.5 0.57417500025 0.32417500025
 O3 O 0.5 0.67582499975 0.42582499975
 O3 O 0.5 0.67582499975 0.42582499975
 O3 O 0.5 0.67582499975 0.32417500025
 O3 O 0.5 0.67582499975 0.32417500025
 O3 O 0.5 0.57417500025 0.42582499975
 O3 O 0.5 0.57417500025 0.42582499975
 O3 O 0.57417500025 0.5 0.32417500025
 O3 O 0.57417500025 0.5 0.32417500025
 O3 O 0.67582499975 0.5 0.42582499975
 O3 O 0.67582499975 0.5 0.42582499975
 O3 O 0.57417500025 0.5 0.42582499975
 O3 O 0.57417500025 0.5 0.42582499975
 O3 O 0.67582499975 0.5 0.32417500025
 O3 O 0.67582499975 0.5 0.32417500025
 O3 O 0.57417500025 0.57417500025 0.25
 O3 O 0.57417500025 0.57417500025 0.25
 O3 O 0.67582499975 0.67582499975 0.25
 O3 O 0.67582499975 0.67582499975 0.25
 O3 O 0.67582499975 0.57417500025 0.25
 O3 O 0.67582499975 0.57417500025 0.25
 O3 O 0.57417500025 0.67582499975 0.25
 O3 O 0.57417500025 0.67582499975 0.25
 O2 O 0.722424999 0.5275749992500001 0.3346000015
 O2 O 0.52757498625 0.5275749992500001 0.3346000015
 O2 O 0.722424999 0.722424999 0.4153999985
 O2 O 0.52757498625 0.722424999 0.4153999985
 O2 O 0.722424999 0.722424999 0.3346000015
 O2 O 0.52757498625 0.722424999 0.3346000015
 O2 O 0.722424999 0.5275749992500001 0.4153999985
 O2 O 0.52757498625 0.5275749992500001 0.4153999985
 O2 O 0.5846000015 0.722424999 0.27757499925
 O2 O 0.5846000015 0.52757498625 0.27757499925
 O2 O 0.6653999985 0.722424999 0.472424999
 O2 O 0.6653999985 0.52757498625 0.472424999
 O2 O 0.5846000015 0.722424999 0.472424999
 O2 O 0.5846000015 0.52757498625 0.472424999
 O2 O 0.6653999985 0.722424999 0.27757499925
 O2 O 0.6653999985 0.52757498625 0.27757499925
 O2 O 0.5275749992500001 0.5846000015 0.472424999
 O2 O 0.5275749992500001 0.5846000015 0.27757498625
 O2 O 0.722424999 0.6653999985 0.472424999
 O2 O 0.722424999 0.6653999985 0.27757498625
 O2 O 0.722424999 0.5846000015 0.472424999
 O2 O 0.722424999 0.5846000015 0.27757498625
 O2 O 0.5275749992500001 0.6653999985 0.472424999
 O2 O 0.5275749992500001 0.6653999985 0.27757498625
 O2 O 0.5275749992500001 0.722424999 0.4153999985
 O2 O 0.5275749992500001 0.52757498625 0.4153999985
 O2 O 0.722424999 0.722424999 0.3346000015
 O2 O 0.722424999 0.52757498625 0.3346000015
 O2 O 0.722424999 0.722424999 0.4153999985
 O2 O 0.722424999 0.52757498625 0.4153999985
 O2 O 0.5275749992500001 0.722424999 0.3346000015
 O2 O 0.5275749992500001 0.52757498625 0.3346000015
 O2 O 0.722424999 0.5846000015 0.472424999
 O2 O 0.52757498625 0.5846000015 0.472424999
 O2 O 0.722424999 0.6653999985 0.27757499925
 O2 O 0.52757498625 0.6653999985 0.27757499925
 O2 O 0.722424999 0.5846000015 0.27757499925
 O2 O 0.52757498625 0.5846000015 0.27757499925
 O2 O 0.722424999 0.6653999985 0.472424999
 O2 O 0.52757498625 0.6653999985 0.472424999
 O2 O 0.5846000015 0.5275749992500001 0.472424999
 O2 O 0.5846000015 0.5275749992500001 0.27757498625
 O2 O 0.6653999985 0.722424999 0.472424999
 O2 O 0.6653999985 0.722424999 0.27757498625
 O2 O 0.5846000015 0.722424999 0.472424999
 O2 O 0.5846000015 0.722424999 0.27757498625
 O2 O 0.6653999985 0.5275749992500001 0.472424999
 O2 O 0.6653999985 0.5275749992500001 0.27757498625
 T1 Si 0.5 0.5455750002499999 0.34210000175
 T1 Si 0.5 0.5455750002499999 0.34210000175
 T1 Si 0.5 0.704425007 0.4079000055
 T1 Si 0.5 0.704425007 0.4079000055
 T1 Si 0.5 0.704425007 0.34210000175
 T1 Si 0.5 0.704425007 0.34210000175
 T1 Si 0.5 0.5455750002499999 0.4079000055
 T1 Si 0.5 0.5455750002499999 0.4079000055
 T1 Si 0.59210000175 0.5 0.29557500025
 T1 Si 0.59210000175 0.5 0.29557500025
 T1 Si 0.6579000054999999 0.5 0.454425007
 T1 Si 0.6579000054999999 0.5 0.454425007
 T1 Si 0.59210000175 0.5 0.454425007
 T1 Si 0.59210000175 0.5 0.454425007
 T1 Si 0.6579000054999999 0.5 0.29557500025
 T1 Si 0.6579000054999999 0.5 0.29557500025
 T1 Si 0.5455750002499999 0.59210000175 0.25
 T1 Si 0.5455750002499999 0.59210000175 0.25
 T1 Si 0.704425007 0.6579000054999999 0.25
 T1 Si 0.704425007 0.6579000054999999 0.25
 T1 Si 0.704425007 0.59210000175 0.25
 T1 Si 0.704425007 0.59210000175 0.25
 T1 Si 0.5455750002499999 0.6579000054999999 0.25
 T1 Si 0.5455750002499999 0.6579000054999999 0.25
 T1 Si 0.5455750002499999 0.5 0.4079000055
 T1 Si 0.5455750002499999 0.5 0.4079000055
 T1 Si 0.704425007 0.5 0.34210000175
 T1 Si 0.704425007 0.5 0.34210000175
 T1 Si 0.704425007 0.5 0.4079000055
 T1 Si 0.704425007 0.5 0.4079000055
 T1 Si 0.5455750002499999 0.5 0.34210000175
 T1 Si 0.5455750002499999 0.5 0.34210000175
 T1 Si 0.5 0.59210000175 0.454425007
 T1 Si 0.5 0.59210000175 0.454425007
 T1 Si 0.5 0.6579000054999999 0.29557500025
 T1 Si 0.5 0.6579000054999999 0.29557500025
 T1 Si 0.5 0.59210000175 0.29557500025
 T1 Si 0.5 0.59210000175 0.29557500025
 T1 Si 0.5 0.6579000054999999 0.454425007
 T1 Si 0.5 0.6579000054999999 0.454425007
 T1 Si 0.59210000175 0.5455750002499999 0.25
 T1 Si 0.59210000175 0.5455750002499999 0.25
 T1 Si 0.6579000054999999 0.704425007 0.25
 T1 Si 0.6579000054999999 0.704425007 0.25
 T1 Si 0.59210000175 0.704425007 0.25
 T1 Si 0.59210000175 0.704425007 0.25
 T1 Si 0.6579000054999999 0.5455750002499999 0.25
 T1 Si 0.6579000054999999 0.5455750002499999 0.25
 O1 O 0.75 0.5530500002500001 0.375
 O1 O 0.75 0.5530500002500001 0.375
 O1 O 0.75 0.6969500035 0.375
 O1 O 0.75 0.6969500035 0.375
 O1 O 0.875 0.5 0.30305000025
 O1 O 0.875 0.5 0.30305000025
 O1 O 0.875 0.5 0.4469500035
 O1 O 0.875 0.5 0.4469500035
 O1 O 0.8030500002500001 0.625 0.25
 O1 O 0.8030500002500001 0.625 0.25
 O1 O 0.9469500035 0.625 0.25
 O1 O 0.9469500035 0.625 0.25
 O1 O 0.8030500002500001 0.5 0.375
 O1 O 0.8030500002500001 0.5 0.375
 O1 O 0.9469500035 0.5 0.375
 O1 O 0.9469500035 0.5 0.375
 O1 O 0.75 0.625 0.4469500035
 O1 O 0.75 0.625 0.4469500035
 O1 O 0.75 0.625 0.30305000025
 O1 O 0.75 0.625 0.30305000025
 O1 O 0.875 0.5530500002500001 0.25
 O1 O 0.875 0.5530500002500001 0.25
 O1 O 0.875 0.6969500035 0.25
 O1 O 0.875 0.6969500035 0.25
 O2 O 0.7775749992500001 0.5275749992500001 0.3346000015
 O2 O 0.972424999 0.722424999 0.4153999985
 O2 O 0.972424999 0.722424999 0.3346000015
 O2 O 0.7775749992500001 0.5275749992500001 0.4153999985
 O2 O 0.972424999 0.5275749992500001 0.4153999985
 O2 O 0.7775749992500001 0.722424999 0.3346000015
 O2 O 0.7775749992500001 0.722424999 0.4153999985
 O2 O 0.972424999 0.5275749992500001 0.3346000015
 O2 O 0.8346000015 0.5275749992500001 0.27757499925
 O2 O 0.9153999985 0.722424999 0.472424999
 O2 O 0.8346000015 0.722424999 0.472424999
 O2 O 0.9153999985 0.5275749992500001 0.27757499925
 O2 O 0.9153999985 0.722424999 0.27757499925
 O2 O 0.8346000015 0.5275749992500001 0.472424999
 O2 O 0.9153999985 0.5275749992500001 0.472424999
 O2 O 0.8346000015 0.722424999 0.27757499925
 O2 O 0.7775749992500001 0.5846000015 0.27757499925
 O2 O 0.972424999 0.6653999985 0.472424999
 O2 O 0.972424999 0.5846000015 0.472424999
 O2 O 0.7775749992500001 0.6653999985 0.27757499925
 O2 O 0.7775749992500001 0.6653999985 0.472424999
 O2 O 0.972424999 0.5846000015 0.27757499925
 O2 O 0.972424999 0.6653999985 0.27757499925
 O2 O 0.7775749992500001 0.5846000015 0.472424999
 O3 O 0.75 0.57417500025 0.32417500025
 O3 O 0.75 0.57417500025 0.32417500025
 O3 O 0.75 0.67582499975 0.42582499975
 O3 O 0.75 0.67582499975 0.42582499975
 O3 O 0.75 0.67582499975 0.32417500025
 O3 O 0.75 0.67582499975 0.32417500025
 O3 O 0.75 0.57417500025 0.42582499975
 O3 O 0.75 0.57417500025 0.42582499975
 O3 O 0.82417500025 0.5 0.32417500025
 O3 O 0.82417500025 0.5 0.32417500025
 O3 O 0.92582499975 0.5 0.42582499975
 O3 O 0.92582499975 0.5 0.42582499975
 O3 O 0.82417500025 0.5 0.42582499975
 O3 O 0.82417500025 0.5 0.42582499975
 O3 O 0.92582499975 0.5 0.32417500025
 O3 O 0.92582499975 0.5 0.32417500025
 O3 O 0.82417500025 0.57417500025 0.25
 O3 O 0.82417500025 0.57417500025 0.25
 O3 O 0.92582499975 0.67582499975 0.25
 O3 O 0.92582499975 0.67582499975 0.25
 O3 O 0.92582499975 0.57417500025 0.25
 O3 O 0.92582499975 0.57417500025 0.25
 O3 O 0.82417500025 0.67582499975 0.25
 O3 O 0.82417500025 0.67582499975 0.25
 O2 O 0.972424999 0.5275749992500001 0.3346000015
 O2 O 0.77757498625 0.5275749992500001 0.3346000015
 O2 O 0.972424999 0.722424999 0.4153999985
 O2 O 0.77757498625 0.722424999 0.4153999985
 O2 O 0.972424999 0.722424999 0.3346000015
 O2 O 0.77757498625 0.722424999 0.3346000015
 O2 O 0.972424999 0.5275749992500001 0.4153999985
 O2 O 0.77757498625 0.5275749992500001 0.4153999985
 O2 O 0.8346000015 0.722424999 0.27757499925
 O2 O 0.8346000015 0.52757498625 0.27757499925
 O2 O 0.9153999985 0.722424999 0.472424999
 O2 O 0.9153999985 0.52757498625 0.472424999
 O2 O 0.8346000015 0.722424999 0.472424999
 O2 O 0.8346000015 0.52757498625 0.472424999
 O2 O 0.9153999985 0.722424999 0.27757499925
 O2 O 0.9153999985 0.52757498625 0.27757499925
 O2 O 0.7775749992500001 0.5846000015 0.472424999
 O2 O 0.7775749992500001 0.5846000015 0.27757498625
 O2 O 0.972424999 0.6653999985 0.472424999
 O2 O 0.972424999 0.6653999985 0.27757498625
 O2 O 0.972424999 0.5846000015 0.472424999
 O2 O 0.972424999 0.5846000015 0.27757498625
 O2 O 0.7775749992500001 0.6653999985 0.472424999
 O2 O 0.7775749992500001 0.6653999985 0.27757498625
 O2 O 0.7775749992500001 0.722424999 0.4153999985
 O2 O 0.7775749992500001 0.52757498625 0.4153999985
 O2 O 0.972424999 0.722424999 0.3346000015
 O2 O 0.972424999 0.52757498625 0.3346000015
 O2 O 0.972424999 0.722424999 0.4153999985
 O2 O 0.972424999 0.52757498625 0.4153999985
 O2 O 0.7775749992500001 0.722424999 0.3346000015
 O2 O 0.7775749992500001 0.52757498625 0.3346000015
 O2 O 0.972424999 0.5846000015 0.472424999
 O2 O 0.77757498625 0.5846000015 0.472424999
 O2 O 0.972424999 0.6653999985 0.27757499925
 O2 O 0.77757498625 0.6653999985 0.27757499925
 O2 O 0.972424999 0.5846000015 0.27757499925
 O2 O 0.77757498625 0.5846000015 0.27757499925
 O2 O 0.972424999 0.6653999985 0.472424999
 O2 O 0.77757498625 0.6653999985 0.472424999
 O2 O 0.8346000015 0.5275749992500001 0.472424999
 O2 O 0.8346000015 0.5275749992500001 0.27757498625
 O2 O 0.9153999985 0.722424999 0.472424999
 O2 O 0.9153999985 0.722424999 0.27757498625
 O2 O 0.8346000015 0.722424999 0.472424999
 O2 O 0.8346000015 0.722424999 0.27757498625
 O2 O 0.9153999985 0.5275749992500001 0.472424999
 O2 O 0.9153999985 0.5275749992500001 0.27757498625
 T1 Si 0.75 0.5455750002499999 0.34210000175
 T1 Si 0.75 0.5455750002499999 0.34210000175
 T1 Si 0.75 0.704425007 0.4079000055
 T1 Si 0.75 0.704425007 0.4079000055
 T1 Si 0.75 0.704425007 0.34210000175
 T1 Si 0.75 0.704425007 0.34210000175
 T1 Si 0.75 0.5455750002499999 0.4079000055
 T1 Si 0.75 0.5455750002499999 0.4079000055
 T1 Si 0.84210000175 0.5 0.29557500025
 T1 Si 0.84210000175 0.5 0.29557500025
 T1 Si 0.9079000054999999 0.5 0.454425007
 T1 Si 0.9079000054999999 0.5 0.454425007
 T1 Si 0.84210000175 0.5 0.454425007
 T1 Si 0.84210000175 0.5 0.454425007
 T1 Si 0.9079000054999999 0.5 0.29557500025
 T1 Si 0.9079000054999999 0.5 0.29557500025
 T1 Si 0.7955750002499999 0.59210000175 0.25
 T1 Si 0.7955750002499999 0.59210000175 0.25
 T1 Si 0.954425007 0.6579000054999999 0.25
 T1 Si 0.954425007 0.6579000054999999 0.25
 T1 Si 0.954425007 0.59210000175 0.25
 T1 Si 0.954425007 0.59210000175 0.25
 T1 Si 0.7955750002499999 0.6579000054999999 0.25
 T1 Si 0.7955750002499999 0.6579000054999999 0.25
 T1 Si 0.7955750002499999 0.5 0.4079000055
 T1 Si 0.7955750002499999 0.5 0.4079000055
 T1 Si 0.954425007 0.5 0.34210000175
 T1 Si 0.954425007 0.5 0.34210000175
 T1 Si 0.954425007 0.5 0.4079000055
 T1 Si 0.954425007 0.5 0.4079000055
 T1 Si 0.7955750002499999 0.5 0.34210000175
 T1 Si 0.7955750002499999 0.5 0.34210000175
 T1 Si 0.75 0.59210000175 0.454425007
 T1 Si 0.75 0.59210000175 0.454425007
 T1 Si 0.75 0.6579000054999999 0.29557500025
 T1 Si 0.75 0.6579000054999999 0.29557500025
 T1 Si 0.75 0.59210000175 0.29557500025
 T1 Si 0.75 0.59210000175 0.29557500025
 T1 Si 0.75 0.6579000054999999 0.454425007
 T1 Si 0.75 0.6579000054999999 0.454425007
 T1 Si 0.84210000175 0.5455750002499999 0.25
 T1 Si 0.84210000175 0.5455750002499999 0.25
 T1 Si 0.9079000054999999 0.704425007 0.25
 T1 Si 0.9079000054999999 0.704425007 0.25
 T1 Si 0.84210000175 0.704425007 0.25
 T1 Si 0.84210000175 0.704425007 0.25
 T1 Si 0.9079000054999999 0.5455750002499999 0.25
 T1 Si 0.9079000054999999 0.5455750002499999 0.25
 O1 O 0.0 0.8030500002500001 0.375
 O1 O 0.0 0.8030500002500001 0.375
 O1 O 0.0 0.9469500035 0.375
 O1 O 0.0 0.9469500035 0.375
 O1 O 0.125 0.75 0.30305000025
 O1 O 0.125 0.75 0.30305000025
 O1 O 0.125 0.75 0.4469500035
 O1 O 0.125 0.75 0.4469500035
 O1 O 0.05305000025 0.875 0.25
 O1 O 0.05305000025 0.875 0.25
 O1 O 0.1969500035 0.875 0.25
 O1 O 0.1969500035 0.875 0.25
 O1 O 0.05305000025 0.75 0.375
 O1 O 0.05305000025 0.75 0.375
 O1 O 0.1969500035 0.75 0.375
 O1 O 0.1969500035 0.75 0.375
 O1 O 0.0 0.875 0.4469500035
 O1 O 0.0 0.875 0.4469500035
 O1 O 0.0 0.875 0.30305000025
 O1 O 0.0 0.875 0.30305000025
 O1 O 0.125 0.8030500002500001 0.25
 O1 O 0.125 0.8030500002500001 0.25
 O1 O 0.125 0.9469500035 0.25
 O1 O 0.125 0.9469500035 0.25
 O2 O 0.02757499925 0.7775749992500001 0.3346000015
 O2 O 0.222424999 0.972424999 0.4153999985
 O2 O 0.222424999 0.972424999 0.3346000015
 O2 O 0.02757499925 0.7775749992500001 0.4153999985
 O2 O 0.222424999 0.7775749992500001 0.4153999985
 O2 O 0.02757499925 0.972424999 0.3346000015
 O2 O 0.02757499925 0.972424999 0.4153999985
 O2 O 0.222424999 0.7775749992500001 0.3346000015
 O2 O 0.0846000015 0.7775749992500001 0.27757499925
 O2 O 0.1653999985 0.972424999 0.472424999
 O2 O 0.0846000015 0.972424999 0.472424999
 O2 O 0.1653999985 0.7775749992500001 0.27757499925
 O2 O 0.1653999985 0.972424999 0.27757499925
 O2 O 0.0846000015 0.7775749992500001 0.472424999
 O2 O 0.1653999985 0.7775749992500001 0.472424999
 O2 O 0.0846000015 0.972424999 0.27757499925
 O2 O 0.02757499925 0.8346000015 0.27757499925
 O2 O 0.222424999 0.9153999985 0.472424999
 O2 O 0.222424999 0.8346000015 0.472424999
 O2 O 0.02757499925 0.9153999985 0.27757499925
 O2 O 0.02757499925 0.9153999985 0.472424999
 O2 O 0.222424999 0.8346000015 0.27757499925
 O2 O 0.222424999 0.9153999985 0.27757499925
 O2 O 0.02757499925 0.8346000015 0.472424999
 O3 O 0.0 0.82417500025 0.32417500025
 O3 O 0.0 0.82417500025 0.32417500025
 O3 O 0.0 0.92582499975 0.42582499975
 O3 O 0.0 0.92582499975 0.42582499975
 O3 O 0.0 0.92582499975 0.32417500025
 O3 O 0.0 0.92582499975 0.32417500025
 O3 O 0.0 0.82417500025 0.42582499975
 O3 O 0.0 0.82417500025 0.42582499975
 O3 O 0.07417500025 0.75 0.32417500025
 O3 O 0.07417500025 0.75 0.32417500025
 O3 O 0.17582499975 0.75 0.42582499975
 O3 O 0.17582499975 0.75 0.42582499975
 O3 O 0.07417500025 0.75 0.42582499975
 O3 O 0.07417500025 0.75 0.42582499975
 O3 O 0.17582499975 0.75 0.32417500025
 O3 O 0.17582499975 0.75 0.32417500025
 O3 O 0.07417500025 0.82417500025 0.25
 O3 O 0.07417500025 0.82417500025 0.25
 O3 O 0.17582499975 0.92582499975 0.25
 O3 O 0.17582499975 0.92582499975 0.25
 O3 O 0.17582499975 0.82417500025 0.25
 O3 O 0.17582499975 0.82417500025 0.25
 O3 O 0.07417500025 0.92582499975 0.25
 O3 O 0.07417500025 0.92582499975 0.25
 O2 O 0.222424999 0.7775749992500001 0.3346000015
 O2 O 0.02757498625 0.7775749992500001 0.3346000015
 O2 O 0.222424999 0.972424999 0.4153999985
 O2 O 0.02757498625 0.972424999 0.4153999985
 O2 O 0.222424999 0.972424999 0.3346000015
 O2 O 0.02757498625 0.972424999 0.3346000015
 O2 O 0.222424999 0.7775749992500001 0.4153999985
 O2 O 0.02757498625 0.7775749992500001 0.4153999985
 O2 O 0.0846000015 0.972424999 0.27757499925
 O2 O 0.0846000015 0.77757498625 0.27757499925
 O2 O 0.1653999985 0.972424999 0.472424999
 O2 O 0.1653999985 0.77757498625 0.472424999
 O2 O 0.0846000015 0.972424999 0.472424999
 O2 O 0.0846000015 0.77757498625 0.472424999
 O2 O 0.1653999985 0.972424999 0.27757499925
 O2 O 0.1653999985 0.77757498625 0.27757499925
 O2 O 0.02757499925 0.8346000015 0.472424999
 O2 O 0.02757499925 0.8346000015 0.27757498625
 O2 O 0.222424999 0.9153999985 0.472424999
 O2 O 0.222424999 0.9153999985 0.27757498625
 O2 O 0.222424999 0.8346000015 0.472424999
 O2 O 0.222424999 0.8346000015 0.27757498625
 O2 O 0.02757499925 0.9153999985 0.472424999
 O2 O 0.02757499925 0.9153999985 0.27757498625
 O2 O 0.02757499925 0.972424999 0.4153999985
 O2 O 0.02757499925 0.77757498625 0.4153999985
 O2 O 0.222424999 0.972424999 0.3346000015
 O2 O 0.222424999 0.77757498625 0.3346000015
 O2 O 0.222424999 0.972424999 0.4153999985
 O2 O 0.222424999 0.77757498625 0.4153999985
 O2 O 0.02757499925 0.972424999 0.3346000015
 O2 O 0.02757499925 0.77757498625 0.3346000015
 O2 O 0.222424999 0.8346000015 0.472424999
 O2 O 0.02757498625 0.8346000015 0.472424999
 O2 O 0.222424999 0.9153999985 0.27757499925
 O2 O 0.02757498625 0.9153999985 0.27757499925
 O2 O 0.222424999 0.8346000015 0.27757499925
 O2 O 0.02757498625 0.8346000015 0.27757499925
 O2 O 0.222424999 0.9153999985 0.472424999
 O2 O 0.02757498625 0.9153999985 0.472424999
 O2 O 0.0846000015 0.7775749992500001 0.472424999
 O2 O 0.0846000015 0.7775749992500001 0.27757498625
 O2 O 0.1653999985 0.972424999 0.472424999
 O2 O 0.1653999985 0.972424999 0.27757498625
 O2 O 0.0846000015 0.972424999 0.472424999
 O2 O 0.0846000015 0.972424999 0.27757498625
 O2 O 0.1653999985 0.7775749992500001 0.472424999
 O2 O 0.1653999985 0.7775749992500001 0.27757498625
 T1 Si 0.0 0.7955750002499999 0.34210000175
 T1 Si 0.0 0.7955750002499999 0.34210000175
 T1 Si 0.0 0.954425007 0.4079000055
 T1 Si 0.0 0.954425007 0.4079000055
 T1 Si 0.0 0.954425007 0.34210000175
 T1 Si 0.0 0.954425007 0.34210000175
 T1 Si 0.0 0.7955750002499999 0.4079000055
 T1 Si 0.0 0.7955750002499999 0.4079000055
 T1 Si 0.09210000175 0.75 0.29557500025
 T1 Si 0.09210000175 0.75 0.29557500025
 T1 Si 0.1579000055 0.75 0.454425007
 T1 Si 0.1579000055 0.75 0.454425007
 T1 Si 0.09210000175 0.75 0.454425007
 T1 Si 0.09210000175 0.75 0.454425007
 T1 Si 0.1579000055 0.75 0.29557500025
 T1 Si 0.1579000055 0.75 0.29557500025
 T1 Si 0.04557500025 0.84210000175 0.25
 T1 Si 0.04557500025 0.84210000175 0.25
 T1 Si 0.204425007 0.9079000054999999 0.25
 T1 Si 0.204425007 0.9079000054999999 0.25
 T1 Si 0.204425007 0.84210000175 0.25
 T1 Si 0.204425007 0.84210000175 0.25
 T1 Si 0.04557500025 0.9079000054999999 0.25
 T1 Si 0.04557500025 0.9079000054999999 0.25
 T1 Si 0.04557500025 0.75 0.4079000055
 T1 Si 0.04557500025 0.75 0.4079000055
 T1 Si 0.204425007 0.75 0.34210000175
 T1 Si 0.204425007 0.75 0.34210000175
 T1 Si 0.204425007 0.75 0.4079000055
 T1 Si 0.204425007 0.75 0.4079000055
 T1 Si 0.04557500025 0.75 0.34210000175
 T1 Si 0.04557500025 0.75 0.34210000175
 T1 Si 0.0 0.84210000175 0.454425007
 T1 Si 0.0 0.84210000175 0.454425007
 T1 Si 0.0 0.9079000054999999 0.29557500025
 T1 Si 0.0 0.9079000054999999 0.29557500025
 T1 Si 0.0 0.84210000175 0.29557500025
 T1 Si 0.0 0.84210000175 0.29557500025
 T1 Si 0.0 0.9079000054999999 0.454425007
 T1 Si 0.0 0.9079000054999999 0.454425007
 T1 Si 0.09210000175 0.7955750002499999 0.25
 T1 Si 0.09210000175 0.7955750002499999 0.25
 T1 Si 0.1579000055 0.954425007 0.25
 T1 Si 0.1579000055 0.954425007 0.25
 T1 Si 0.09210000175 0.954425007 0.25
 T1 Si 0.09210000175 0.954425007 0.25
 T1 Si 0.1579000055 0.7955750002499999 0.25
 T1 Si 0.1579000055 0.7955750002499999 0.25
 O1 O 0.25 0.8030500002500001 0.375
 O1 O 0.25 0.8030500002500001 0.375
 O1 O 0.25 0.9469500035 0.375
 O1 O 0.25 0.9469500035 0.375
 O1 O 0.375 0.75 0.30305000025
 O1 O 0.375 0.75 0.30305000025
 O1 O 0.375 0.75 0.4469500035
 O1 O 0.375 0.75 0.4469500035
 O1 O 0.30305000025 0.875 0.25
 O1 O 0.30305000025 0.875 0.25
 O1 O 0.4469500035 0.875 0.25
 O1 O 0.4469500035 0.875 0.25
 O1 O 0.30305000025 0.75 0.375
 O1 O 0.30305000025 0.75 0.375
 O1 O 0.4469500035 0.75 0.375
 O1 O 0.4469500035 0.75 0.375
 O1 O 0.25 0.875 0.4469500035
 O1 O 0.25 0.875 0.4469500035
 O1 O 0.25 0.875 0.30305000025
 O1 O 0.25 0.875 0.30305000025
 O1 O 0.375 0.8030500002500001 0.25
 O1 O 0.375 0.8030500002500001 0.25
 O1 O 0.375 0.9469500035 0.25
 O1 O 0.375 0.9469500035 0.25
 O2 O 0.27757499925 0.7775749992500001 0.3346000015
 O2 O 0.472424999 0.972424999 0.4153999985
 O2 O 0.472424999 0.972424999 0.3346000015
 O2 O 0.27757499925 0.7775749992500001 0.4153999985
 O2 O 0.472424999 0.7775749992500001 0.4153999985
 O2 O 0.27757499925 0.972424999 0.3346000015
 O2 O 0.27757499925 0.972424999 0.4153999985
 O2 O 0.472424999 0.7775749992500001 0.3346000015
 O2 O 0.3346000015 0.7775749992500001 0.27757499925
 O2 O 0.4153999985 0.972424999 0.472424999
 O2 O 0.3346000015 0.972424999 0.472424999
 O2 O 0.4153999985 0.7775749992500001 0.27757499925
 O2 O 0.4153999985 0.972424999 0.27757499925
 O2 O 0.3346000015 0.7775749992500001 0.472424999
 O2 O 0.4153999985 0.7775749992500001 0.472424999
 O2 O 0.3346000015 0.972424999 0.27757499925
 O2 O 0.27757499925 0.8346000015 0.27757499925
 O2 O 0.472424999 0.9153999985 0.472424999
 O2 O 0.472424999 0.8346000015 0.472424999
 O2 O 0.27757499925 0.9153999985 0.27757499925
 O2 O 0.27757499925 0.9153999985 0.472424999
 O2 O 0.472424999 0.8346000015 0.27757499925
 O2 O 0.472424999 0.9153999985 0.27757499925
 O2 O 0.27757499925 0.8346000015 0.472424999
 O3 O 0.25 0.82417500025 0.32417500025
 O3 O 0.25 0.82417500025 0.32417500025
 O3 O 0.25 0.92582499975 0.42582499975
 O3 O 0.25 0.92582499975 0.42582499975
 O3 O 0.25 0.92582499975 0.32417500025
 O3 O 0.25 0.92582499975 0.32417500025
 O3 O 0.25 0.82417500025 0.42582499975
 O3 O 0.25 0.82417500025 0.42582499975
 O3 O 0.32417500025 0.75 0.32417500025
 O3 O 0.32417500025 0.75 0.32417500025
 O3 O 0.42582499975 0.75 0.42582499975
 O3 O 0.42582499975 0.75 0.42582499975
 O3 O 0.32417500025 0.75 0.42582499975
 O3 O 0.32417500025 0.75 0.42582499975
 O3 O 0.42582499975 0.75 0.32417500025
 O3 O 0.42582499975 0.75 0.32417500025
 O3 O 0.32417500025 0.82417500025 0.25
 O3 O 0.32417500025 0.82417500025 0.25
 O3 O 0.42582499975 0.92582499975 0.25
 O3 O 0.42582499975 0.92582499975 0.25
 O3 O 0.42582499975 0.82417500025 0.25
 O3 O 0.42582499975 0.82417500025 0.25
 O3 O 0.32417500025 0.92582499975 0.25
 O3 O 0.32417500025 0.92582499975 0.25
 O2 O 0.472424999 0.7775749992500001 0.3346000015
 O2 O 0.27757498625 0.7775749992500001 0.3346000015
 O2 O 0.472424999 0.972424999 0.4153999985
 O2 O 0.27757498625 0.972424999 0.4153999985
 O2 O 0.472424999 0.972424999 0.3346000015
 O2 O 0.27757498625 0.972424999 0.3346000015
 O2 O 0.472424999 0.7775749992500001 0.4153999985
 O2 O 0.27757498625 0.7775749992500001 0.4153999985
 O2 O 0.3346000015 0.972424999 0.27757499925
 O2 O 0.3346000015 0.77757498625 0.27757499925
 O2 O 0.4153999985 0.972424999 0.472424999
 O2 O 0.4153999985 0.77757498625 0.472424999
 O2 O 0.3346000015 0.972424999 0.472424999
 O2 O 0.3346000015 0.77757498625 0.472424999
 O2 O 0.4153999985 0.972424999 0.27757499925
 O2 O 0.4153999985 0.77757498625 0.27757499925
 O2 O 0.27757499925 0.8346000015 0.472424999
 O2 O 0.27757499925 0.8346000015 0.27757498625
 O2 O 0.472424999 0.9153999985 0.472424999
 O2 O 0.472424999 0.9153999985 0.27757498625
 O2 O 0.472424999 0.8346000015 0.472424999
 O2 O 0.472424999 0.8346000015 0.27757498625
 O2 O 0.27757499925 0.9153999985 0.472424999
 O2 O 0.27757499925 0.9153999985 0.27757498625
 O2 O 0.27757499925 0.972424999 0.4153999985
 O2 O 0.27757499925 0.77757498625 0.4153999985
 O2 O 0.472424999 0.972424999 0.3346000015
 O2 O 0.472424999 0.77757498625 0.3346000015
 O2 O 0.472424999 0.972424999 0.4153999985
 O2 O 0.472424999 0.77757498625 0.4153999985
 O2 O 0.27757499925 0.972424999 0.3346000015
 O2 O 0.27757499925 0.77757498625 0.3346000015
 O2 O 0.472424999 0.8346000015 0.472424999
 O2 O 0.27757498625 0.8346000015 0.472424999
 O2 O 0.472424999 0.9153999985 0.27757499925
 O2 O 0.27757498625 0.9153999985 0.27757499925
 O2 O 0.472424999 0.8346000015 0.27757499925
 O2 O 0.27757498625 0.8346000015 0.27757499925
 O2 O 0.472424999 0.9153999985 0.472424999
 O2 O 0.27757498625 0.9153999985 0.472424999
 O2 O 0.3346000015 0.7775749992500001 0.472424999
 O2 O 0.3346000015 0.7775749992500001 0.27757498625
 O2 O 0.4153999985 0.972424999 0.472424999
 O2 O 0.4153999985 0.972424999 0.27757498625
 O2 O 0.3346000015 0.972424999 0.472424999
 O2 O 0.3346000015 0.972424999 0.27757498625
 O2 O 0.4153999985 0.7775749992500001 0.472424999
 O2 O 0.4153999985 0.7775749992500001 0.27757498625
 T1 Si 0.25 0.7955750002499999 0.34210000175
 T1 Si 0.25 0.7955750002499999 0.34210000175
 T1 Si 0.25 0.954425007 0.4079000055
 T1 Si 0.25 0.954425007 0.4079000055
 T1 Si 0.25 0.954425007 0.34210000175
 T1 Si 0.25 0.954425007 0.34210000175
 T1 Si 0.25 0.7955750002499999 0.4079000055
 T1 Si 0.25 0.7955750002499999 0.4079000055
 T1 Si 0.34210000175 0.75 0.29557500025
 T1 Si 0.34210000175 0.75 0.29557500025
 T1 Si 0.4079000055 0.75 0.454425007
 T1 Si 0.4079000055 0.75 0.454425007
 T1 Si 0.34210000175 0.75 0.454425007
 T1 Si 0.34210000175 0.75 0.454425007
 T1 Si 0.4079000055 0.75 0.29557500025
 T1 Si 0.4079000055 0.75 0.29557500025
 T1 Si 0.29557500025 0.84210000175 0.25
 T1 Si 0.29557500025 0.84210000175 0.25
 T1 Si 0.454425007 0.9079000054999999 0.25
 T1 Si 0.454425007 0.9079000054999999 0.25
 T1 Si 0.454425007 0.84210000175 0.25
 T1 Si 0.454425007 0.84210000175 0.25
 T1 Si 0.29557500025 0.9079000054999999 0.25
 T1 Si 0.29557500025 0.9079000054999999 0.25
 T1 Si 0.29557500025 0.75 0.4079000055
 T1 Si 0.29557500025 0.75 0.4079000055
 T1 Si 0.454425007 0.75 0.34210000175
 T1 Si 0.454425007 0.75 0.34210000175
 T1 Si 0.454425007 0.75 0.4079000055
 T1 Si 0.454425007 0.75 0.4079000055
 T1 Si 0.29557500025 0.75 0.34210000175
 T1 Si 0.29557500025 0.75 0.34210000175
 T1 Si 0.25 0.84210000175 0.454425007
 T1 Si 0.25 0.84210000175 0.454425007
 T1 Si 0.25 0.9079000054999999 0.29557500025
 T1 Si 0.25 0.9079000054999999 0.29557500025
 T1 Si 0.25 0.84210000175 0.29557500025
 T1 Si 0.25 0.84210000175 0.29557500025
 T1 Si 0.25 0.9079000054999999 0.454425007
 T1 Si 0.25 0.9079000054999999 0.454425007
 T1 Si 0.34210000175 0.7955750002499999 0.25
 T1 Si 0.34210000175 0.7955750002499999 0.25
 T1 Si 0.4079000055 0.954425007 0.25
 T1 Si 0.4079000055 0.954425007 0.25
 T1 Si 0.34210000175 0.954425007 0.25
 T1 Si 0.34210000175 0.954425007 0.25
 T1 Si 0.4079000055 0.7955750002499999 0.25
 T1 Si 0.4079000055 0.7955750002499999 0.25
 O1 O 0.5 0.8030500002500001 0.375
 O1 O 0.5 0.8030500002500001 0.375
 O1 O 0.5 0.9469500035 0.375
 O1 O 0.5 0.9469500035 0.375
 O1 O 0.625 0.75 0.30305000025
 O1 O 0.625 0.75 0.30305000025
 O1 O 0.625 0.75 0.4469500035
 O1 O 0.625 0.75 0.4469500035
 O1 O 0.5530500002500001 0.875 0.25
 O1 O 0.5530500002500001 0.875 0.25
 O1 O 0.6969500035 0.875 0.25
 O1 O 0.6969500035 0.875 0.25
 O1 O 0.5530500002500001 0.75 0.375
 O1 O 0.5530500002500001 0.75 0.375
 O1 O 0.6969500035 0.75 0.375
 O1 O 0.6969500035 0.75 0.375
 O1 O 0.5 0.875 0.4469500035
 O1 O 0.5 0.875 0.4469500035
 O1 O 0.5 0.875 0.30305000025
 O1 O 0.5 0.875 0.30305000025
 O1 O 0.625 0.8030500002500001 0.25
 O1 O 0.625 0.8030500002500001 0.25
 O1 O 0.625 0.9469500035 0.25
 O1 O 0.625 0.9469500035 0.25
 O2 O 0.5275749992500001 0.7775749992500001 0.3346000015
 O2 O 0.722424999 0.972424999 0.4153999985
 O2 O 0.722424999 0.972424999 0.3346000015
 O2 O 0.5275749992500001 0.7775749992500001 0.4153999985
 O2 O 0.722424999 0.7775749992500001 0.4153999985
 O2 O 0.5275749992500001 0.972424999 0.3346000015
 O2 O 0.5275749992500001 0.972424999 0.4153999985
 O2 O 0.722424999 0.7775749992500001 0.3346000015
 O2 O 0.5846000015 0.7775749992500001 0.27757499925
 O2 O 0.6653999985 0.972424999 0.472424999
 O2 O 0.5846000015 0.972424999 0.472424999
 O2 O 0.6653999985 0.7775749992500001 0.27757499925
 O2 O 0.6653999985 0.972424999 0.27757499925
 O2 O 0.5846000015 0.7775749992500001 0.472424999
 O2 O 0.6653999985 0.7775749992500001 0.472424999
 O2 O 0.5846000015 0.972424999 0.27757499925
 O2 O 0.5275749992500001 0.8346000015 0.27757499925
 O2 O 0.722424999 0.9153999985 0.472424999
 O2 O 0.722424999 0.8346000015 0.472424999
 O2 O 0.5275749992500001 0.9153999985 0.27757499925
 O2 O 0.5275749992500001 0.9153999985 0.472424999
 O2 O 0.722424999 0.8346000015 0.27757499925
 O2 O 0.722424999 0.9153999985 0.27757499925
 O2 O 0.5275749992500001 0.8346000015 0.472424999
 O3 O 0.5 0.82417500025 0.32417500025
 O3 O 0.5 0.82417500025 0.32417500025
 O3 O 0.5 0.92582499975 0.42582499975
 O3 O 0.5 0.92582499975 0.42582499975
 O3 O 0.5 0.92582499975 0.32417500025
 O3 O 0.5 0.92582499975 0.32417500025
 O3 O 0.5 0.82417500025 0.42582499975
 O3 O 0.5 0.82417500025 0.42582499975
 O3 O 0.57417500025 0.75 0.32417500025
 O3 O 0.57417500025 0.75 0.32417500025
 O3 O 0.67582499975 0.75 0.42582499975
 O3 O 0.67582499975 0.75 0.42582499975
 O3 O 0.57417500025 0.75 0.42582499975
 O3 O 0.57417500025 0.75 0.42582499975
 O3 O 0.67582499975 0.75 0.32417500025
 O3 O 0.67582499975 0.75 0.32417500025
 O3 O 0.57417500025 0.82417500025 0.25
 O3 O 0.57417500025 0.82417500025 0.25
 O3 O 0.67582499975 0.92582499975 0.25
 O3 O 0.67582499975 0.92582499975 0.25
 O3 O 0.67582499975 0.82417500025 0.25
 O3 O 0.67582499975 0.82417500025 0.25
 O3 O 0.57417500025 0.92582499975 0.25
 O3 O 0.57417500025 0.92582499975 0.25
 O2 O 0.722424999 0.7775749992500001 0.3346000015
 O2 O 0.52757498625 0.7775749992500001 0.3346000015
 O2 O 0.722424999 0.972424999 0.4153999985
 O2 O 0.52757498625 0.972424999 0.4153999985
 O2 O 0.722424999 0.972424999 0.3346000015
 O2 O 0.52757498625 0.972424999 0.3346000015
 O2 O 0.722424999 0.7775749992500001 0.4153999985
 O2 O 0.52757498625 0.7775749992500001 0.4153999985
 O2 O 0.5846000015 0.972424999 0.27757499925
 O2 O 0.5846000015 0.77757498625 0.27757499925
 O2 O 0.6653999985 0.972424999 0.472424999
 O2 O 0.6653999985 0.77757498625 0.472424999
 O2 O 0.5846000015 0.972424999 0.472424999
 O2 O 0.5846000015 0.77757498625 0.472424999
 O2 O 0.6653999985 0.972424999 0.27757499925
 O2 O 0.6653999985 0.77757498625 0.27757499925
 O2 O 0.5275749992500001 0.8346000015 0.472424999
 O2 O 0.5275749992500001 0.8346000015 0.27757498625
 O2 O 0.722424999 0.9153999985 0.472424999
 O2 O 0.722424999 0.9153999985 0.27757498625
 O2 O 0.722424999 0.8346000015 0.472424999
 O2 O 0.722424999 0.8346000015 0.27757498625
 O2 O 0.5275749992500001 0.9153999985 0.472424999
 O2 O 0.5275749992500001 0.9153999985 0.27757498625
 O2 O 0.5275749992500001 0.972424999 0.4153999985
 O2 O 0.5275749992500001 0.77757498625 0.4153999985
 O2 O 0.722424999 0.972424999 0.3346000015
 O2 O 0.722424999 0.77757498625 0.3346000015
 O2 O 0.722424999 0.972424999 0.4153999985
 O2 O 0.722424999 0.77757498625 0.4153999985
 O2 O 0.5275749992500001 0.972424999 0.3346000015
 O2 O 0.5275749992500001 0.77757498625 0.3346000015
 O2 O 0.722424999 0.8346000015 0.472424999
 O2 O 0.52757498625 0.8346000015 0.472424999
 O2 O 0.722424999 0.9153999985 0.27757499925
 O2 O 0.52757498625 0.9153999985 0.27757499925
 O2 O 0.722424999 0.8346000015 0.27757499925
 O2 O 0.52757498625 0.8346000015 0.27757499925
 O2 O 0.722424999 0.9153999985 0.472424999
 O2 O 0.52757498625 0.9153999985 0.472424999
 O2 O 0.5846000015 0.7775749992500001 0.472424999
 O2 O 0.5846000015 0.7775749992500001 0.27757498625
 O2 O 0.6653999985 0.972424999 0.472424999
 O2 O 0.6653999985 0.972424999 0.27757498625
 O2 O 0.5846000015 0.972424999 0.472424999
 O2 O 0.5846000015 0.972424999 0.27757498625
 O2 O 0.6653999985 0.7775749992500001 0.472424999
 O2 O 0.6653999985 0.7775749992500001 0.27757498625
 T1 Si 0.5 0.7955750002499999 0.34210000175
 T1 Si 0.5 0.7955750002499999 0.34210000175
 T1 Si 0.5 0.954425007 0.4079000055
 T1 Si 0.5 0.954425007 0.4079000055
 T1 Si 0.5 0.954425007 0.34210000175
 T1 Si 0.5 0.954425007 0.34210000175
 T1 Si 0.5 0.7955750002499999 0.4079000055
 T1 Si 0.5 0.7955750002499999 0.4079000055
 T1 Si 0.59210000175 0.75 0.29557500025
 T1 Si 0.59210000175 0.75 0.29557500025
 T1 Si 0.6579000054999999 0.75 0.454425007
 T1 Si 0.6579000054999999 0.75 0.454425007
 T1 Si 0.59210000175 0.75 0.454425007
 T1 Si 0.59210000175 0.75 0.454425007
 T1 Si 0.6579000054999999 0.75 0.29557500025
 T1 Si 0.6579000054999999 0.75 0.29557500025
 T1 Si 0.5455750002499999 0.84210000175 0.25
 T1 Si 0.5455750002499999 0.84210000175 0.25
 T1 Si 0.704425007 0.9079000054999999 0.25
 T1 Si 0.704425007 0.9079000054999999 0.25
 T1 Si 0.704425007 0.84210000175 0.25
 T1 Si 0.704425007 0.84210000175 0.25
 T1 Si 0.5455750002499999 0.9079000054999999 0.25
 T1 Si 0.5455750002499999 0.9079000054999999 0.25
 T1 Si 0.5455750002499999 0.75 0.4079000055
 T1 Si 0.5455750002499999 0.75 0.4079000055
 T1 Si 0.704425007 0.75 0.34210000175
 T1 Si 0.704425007 0.75 0.34210000175
 T1 Si 0.704425007 0.75 0.4079000055
 T1 Si 0.704425007 0.75 0.4079000055
 T1 Si 0.5455750002499999 0.75 0.34210000175
 T1 Si 0.5455750002499999 0.75 0.34210000175
 T1 Si 0.5 0.84210000175 0.454425007
 T1 Si 0.5 0.84210000175 0.454425007
 T1 Si 0.5 0.9079000054999999 0.29557500025
 T1 Si 0.5 0.9079000054999999 0.29557500025
 T1 Si 0.5 0.84210000175 0.29557500025
 T1 Si 0.5 0.84210000175 0.29557500025
 T1 Si 0.5 0.9079000054999999 0.454425007
 T1 Si 0.5 0.9079000054999999 0.454425007
 T1 Si 0.59210000175 0.7955750002499999 0.25
 T1 Si 0.59210000175 0.7955750002499999 0.25
 T1 Si 0.6579000054999999 0.954425007 0.25
 T1 Si 0.6579000054999999 0.954425007 0.25
 T1 Si 0.59210000175 0.954425007 0.25
 T1 Si 0.59210000175 0.954425007 0.25
 T1 Si 0.6579000054999999 0.7955750002499999 0.25
 T1 Si 0.6579000054999999 0.7955750002499999 0.25
 O1 O 0.75 0.8030500002500001 0.375
 O1 O 0.75 0.8030500002500001 0.375
 O1 O 0.75 0.9469500035 0.375
 O1 O 0.75 0.9469500035 0.375
 O1 O 0.875 0.75 0.30305000025
 O1 O 0.875 0.75 0.30305000025
 O1 O 0.875 0.75 0.4469500035
 O1 O 0.875 0.75 0.4469500035
 O1 O 0.8030500002500001 0.875 0.25
 O1 O 0.8030500002500001 0.875 0.25
 O1 O 0.9469500035 0.875 0.25
 O1 O 0.9469500035 0.875 0.25
 O1 O 0.8030500002500001 0.75 0.375
 O1 O 0.8030500002500001 0.75 0.375
 O1 O 0.9469500035 0.75 0.375
 O1 O 0.9469500035 0.75 0.375
 O1 O 0.75 0.875 0.4469500035
 O1 O 0.75 0.875 0.4469500035
 O1 O 0.75 0.875 0.30305000025
 O1 O 0.75 0.875 0.30305000025
 O1 O 0.875 0.8030500002500001 0.25
 O1 O 0.875 0.8030500002500001 0.25
 O1 O 0.875 0.9469500035 0.25
 O1 O 0.875 0.9469500035 0.25
 O2 O 0.7775749992500001 0.7775749992500001 0.3346000015
 O2 O 0.972424999 0.972424999 0.4153999985
 O2 O 0.972424999 0.972424999 0.3346000015
 O2 O 0.7775749992500001 0.7775749992500001 0.4153999985
 O2 O 0.972424999 0.7775749992500001 0.4153999985
 O2 O 0.7775749992500001 0.972424999 0.3346000015
 O2 O 0.7775749992500001 0.972424999 0.4153999985
 O2 O 0.972424999 0.7775749992500001 0.3346000015
 O2 O 0.8346000015 0.7775749992500001 0.27757499925
 O2 O 0.9153999985 0.972424999 0.472424999
 O2 O 0.8346000015 0.972424999 0.472424999
 O2 O 0.9153999985 0.7775749992500001 0.27757499925
 O2 O 0.9153999985 0.972424999 0.27757499925
 O2 O 0.8346000015 0.7775749992500001 0.472424999
 O2 O 0.9153999985 0.7775749992500001 0.472424999
 O2 O 0.8346000015 0.972424999 0.27757499925
 O2 O 0.7775749992500001 0.8346000015 0.27757499925
 O2 O 0.972424999 0.9153999985 0.472424999
 O2 O 0.972424999 0.8346000015 0.472424999
 O2 O 0.7775749992500001 0.9153999985 0.27757499925
 O2 O 0.7775749992500001 0.9153999985 0.472424999
 O2 O 0.972424999 0.8346000015 0.27757499925
 O2 O 0.972424999 0.9153999985 0.27757499925
 O2 O 0.7775749992500001 0.8346000015 0.472424999
 O3 O 0.75 0.82417500025 0.32417500025
 O3 O 0.75 0.82417500025 0.32417500025
 O3 O 0.75 0.92582499975 0.42582499975
 O3 O 0.75 0.92582499975 0.42582499975
 O3 O 0.75 0.92582499975 0.32417500025
 O3 O 0.75 0.92582499975 0.32417500025
 O3 O 0.75 0.82417500025 0.42582499975
 O3 O 0.75 0.82417500025 0.42582499975
 O3 O 0.82417500025 0.75 0.32417500025
 O3 O 0.82417500025 0.75 0.32417500025
 O3 O 0.92582499975 0.75 0.42582499975
 O3 O 0.92582499975 0.75 0.42582499975
 O3 O 0.82417500025 0.75 0.42582499975
 O3 O 0.82417500025 0.75 0.42582499975
 O3 O 0.92582499975 0.75 0.32417500025
 O3 O 0.92582499975 0.75 0.32417500025
 O3 O 0.82417500025 0.82417500025 0.25
 O3 O 0.82417500025 0.82417500025 0.25
 O3 O 0.92582499975 0.92582499975 0.25
 O3 O 0.92582499975 0.92582499975 0.25
 O3 O 0.92582499975 0.82417500025 0.25
 O3 O 0.92582499975 0.82417500025 0.25
 O3 O 0.82417500025 0.92582499975 0.25
 O3 O 0.82417500025 0.92582499975 0.25
 O2 O 0.972424999 0.7775749992500001 0.3346000015
 O2 O 0.77757498625 0.7775749992500001 0.3346000015
 O2 O 0.972424999 0.972424999 0.4153999985
 O2 O 0.77757498625 0.972424999 0.4153999985
 O2 O 0.972424999 0.972424999 0.3346000015
 O2 O 0.77757498625 0.972424999 0.3346000015
 O2 O 0.972424999 0.7775749992500001 0.4153999985
 O2 O 0.77757498625 0.7775749992500001 0.4153999985
 O2 O 0.8346000015 0.972424999 0.27757499925
 O2 O 0.8346000015 0.77757498625 0.27757499925
 O2 O 0.9153999985 0.972424999 0.472424999
 O2 O 0.9153999985 0.77757498625 0.472424999
 O2 O 0.8346000015 0.972424999 0.472424999
 O2 O 0.8346000015 0.77757498625 0.472424999
 O2 O 0.9153999985 0.972424999 0.27757499925
 O2 O 0.9153999985 0.77757498625 0.27757499925
 O2 O 0.7775749992500001 0.8346000015 0.472424999
 O2 O 0.7775749992500001 0.8346000015 0.27757498625
 O2 O 0.972424999 0.9153999985 0.472424999
 O2 O 0.972424999 0.9153999985 0.27757498625
 O2 O 0.972424999 0.8346000015 0.472424999
 O2 O 0.972424999 0.8346000015 0.27757498625
 O2 O 0.7775749992500001 0.9153999985 0.472424999
 O2 O 0.7775749992500001 0.9153999985 0.27757498625
 O2 O 0.7775749992500001 0.972424999 0.4153999985
 O2 O 0.7775749992500001 0.77757498625 0.4153999985
 O2 O 0.972424999 0.972424999 0.3346000015
 O2 O 0.972424999 0.77757498625 0.3346000015
 O2 O 0.972424999 0.972424999 0.4153999985
 O2 O 0.972424999 0.77757498625 0.4153999985
 O2 O 0.7775749992500001 0.972424999 0.3346000015
 O2 O 0.7775749992500001 0.77757498625 0.3346000015
 O2 O 0.972424999 0.8346000015 0.472424999
 O2 O 0.77757498625 0.8346000015 0.472424999
 O2 O 0.972424999 0.9153999985 0.27757499925
 O2 O 0.77757498625 0.9153999985 0.27757499925
 O2 O 0.972424999 0.8346000015 0.27757499925
 O2 O 0.77757498625 0.8346000015 0.27757499925
 O2 O 0.972424999 0.9153999985 0.472424999
 O2 O 0.77757498625 0.9153999985 0.472424999
 O2 O 0.8346000015 0.7775749992500001 0.472424999
 O2 O 0.8346000015 0.7775749992500001 0.27757498625
 O2 O 0.9153999985 0.972424999 0.472424999
 O2 O 0.9153999985 0.972424999 0.27757498625
 O2 O 0.8346000015 0.972424999 0.472424999
 O2 O 0.8346000015 0.972424999 0.27757498625
 O2 O 0.9153999985 0.7775749992500001 0.472424999
 O2 O 0.9153999985 0.7775749992500001 0.27757498625
 T1 Si 0.75 0.7955750002499999 0.34210000175
 T1 Si 0.75 0.7955750002499999 0.34210000175
 T1 Si 0.75 0.954425007 0.4079000055
 T1 Si 0.75 0.954425007 0.4079000055
 T1 Si 0.75 0.954425007 0.34210000175
 T1 Si 0.75 0.954425007 0.34210000175
 T1 Si 0.75 0.7955750002499999 0.4079000055
 T1 Si 0.75 0.7955750002499999 0.4079000055
 T1 Si 0.84210000175 0.75 0.29557500025
 T1 Si 0.84210000175 0.75 0.29557500025
 T1 Si 0.9079000054999999 0.75 0.454425007
 T1 Si 0.9079000054999999 0.75 0.454425007
 T1 Si 0.84210000175 0.75 0.454425007
 T1 Si 0.84210000175 0.75 0.454425007
 T1 Si 0.9079000054999999 0.75 0.29557500025
 T1 Si 0.9079000054999999 0.75 0.29557500025
 T1 Si 0.7955750002499999 0.84210000175 0.25
 T1 Si 0.7955750002499999 0.84210000175 0.25
 T1 Si 0.954425007 0.9079000054999999 0.25
 T1 Si 0.954425007 0.9079000054999999 0.25
 T1 Si 0.954425007 0.84210000175 0.25
 T1 Si 0.954425007 0.84210000175 0.25
 T1 Si 0.7955750002499999 0.9079000054999999 0.25
 T1 Si 0.7955750002499999 0.9079000054999999 0.25
 T1 Si 0.7955750002499999 0.75 0.4079000055
 T1 Si 0.7955750002499999 0.75 0.4079000055
 T1 Si 0.954425007 0.75 0.34210000175
 T1 Si 0.954425007 0.75 0.34210000175
 T1 Si 0.954425007 0.75 0.4079000055
 T1 Si 0.954425007 0.75 0.4079000055
 T1 Si 0.7955750002499999 0.75 0.34210000175
 T1 Si 0.7955750002499999 0.75 0.34210000175
 T1 Si 0.75 0.84210000175 0.454425007
 T1 Si 0.75 0.84210000175 0.454425007
 T1 Si 0.75 0.9079000054999999 0.29557500025
 T1 Si 0.75 0.9079000054999999 0.29557500025
 T1 Si 0.75 0.84210000175 0.29557500025
 T1 Si 0.75 0.84210000175 0.29557500025
 T1 Si 0.75 0.9079000054999999 0.454425007
 T1 Si 0.75 0.9079000054999999 0.454425007
 T1 Si 0.84210000175 0.7955750002499999 0.25
 T1 Si 0.84210000175 0.7955750002499999 0.25
 T1 Si 0.9079000054999999 0.954425007 0.25
 T1 Si 0.9079000054999999 0.954425007 0.25
 T1 Si 0.84210000175 0.954425007 0.25
 T1 Si 0.84210000175 0.954425007 0.25
 T1 Si 0.9079000054999999 0.7955750002499999 0.25
 T1 Si 0.9079000054999999 0.7955750002499999 0.25
 O1 O 0.0 0.05305000025 0.625
 O1 O 0.0 0.05305000025 0.625
 O1 O 0.0 0.1969500035 0.625
 O1 O 0.0 0.1969500035 0.625
 O1 O 0.125 0.0 0.5530500002500001
 O1 O 0.125 0.0 0.5530500002500001
 O1 O 0.125 0.0 0.6969500035
 O1 O 0.125 0.0 0.6969500035
 O1 O 0.05305000025 0.125 0.5
 O1 O 0.05305000025 0.125 0.5
 O1 O 0.1969500035 0.125 0.5
 O1 O 0.1969500035 0.125 0.5
 O1 O 0.05305000025 0.0 0.625
 O1 O 0.05305000025 0.0 0.625
 O1 O 0.1969500035 0.0 0.625
 O1 O 0.1969500035 0.0 0.625
 O1 O 0.0 0.125 0.6969500035
 O1 O 0.0 0.125 0.6969500035
 O1 O 0.0 0.125 0.5530500002500001
 O1 O 0.0 0.125 0.5530500002500001
 O1 O 0.125 0.05305000025 0.5
 O1 O 0.125 0.05305000025 0.5
 O1 O 0.125 0.1969500035 0.5
 O1 O 0.125 0.1969500035 0.5
 O2 O 0.02757499925 0.02757499925 0.5846000015
 O2 O 0.222424999 0.222424999 0.6653999985
 O2 O 0.222424999 0.222424999 0.5846000015
 O2 O 0.02757499925 0.02757499925 0.6653999985
 O2 O 0.222424999 0.02757499925 0.6653999985
 O2 O 0.02757499925 0.222424999 0.5846000015
 O2 O 0.02757499925 0.222424999 0.6653999985
 O2 O 0.222424999 0.02757499925 0.5846000015
 O2 O 0.0846000015 0.02757499925 0.5275749992500001
 O2 O 0.1653999985 0.222424999 0.722424999
 O2 O 0.0846000015 0.222424999 0.722424999
 O2 O 0.1653999985 0.02757499925 0.5275749992500001
 O2 O 0.1653999985 0.222424999 0.5275749992500001
 O2 O 0.0846000015 0.02757499925 0.722424999
 O2 O 0.1653999985 0.02757499925 0.722424999
 O2 O 0.0846000015 0.222424999 0.5275749992500001
 O2 O 0.02757499925 0.0846000015 0.5275749992500001
 O2 O 0.222424999 0.1653999985 0.722424999
 O2 O 0.222424999 0.0846000015 0.722424999
 O2 O 0.02757499925 0.1653999985 0.5275749992500001
 O2 O 0.02757499925 0.1653999985 0.722424999
 O2 O 0.222424999 0.0846000015 0.5275749992500001
 O2 O 0.222424999 0.1653999985 0.5275749992500001
 O2 O 0.02757499925 0.0846000015 0.722424999
 O3 O 0.0 0.07417500025 0.57417500025
 O3 O 0.0 0.07417500025 0.57417500025
 O3 O 0.0 0.17582499975 0.67582499975
 O3 O 0.0 0.17582499975 0.67582499975
 O3 O 0.0 0.17582499975 0.57417500025
 O3 O 0.0 0.17582499975 0.57417500025
 O3 O 0.0 0.07417500025 0.67582499975
 O3 O 0.0 0.07417500025 0.67582499975
 O3 O 0.07417500025 0.0 0.57417500025
 O3 O 0.07417500025 0.0 0.57417500025
 O3 O 0.17582499975 0.0 0.67582499975
 O3 O 0.17582499975 0.0 0.67582499975
 O3 O 0.07417500025 0.0 0.67582499975
 O3 O 0.07417500025 0.0 0.67582499975
 O3 O 0.17582499975 0.0 0.57417500025
 O3 O 0.17582499975 0.0 0.57417500025
 O3 O 0.07417500025 0.07417500025 0.5
 O3 O 0.07417500025 0.07417500025 0.5
 O3 O 0.17582499975 0.17582499975 0.5
 O3 O 0.17582499975 0.17582499975 0.5
 O3 O 0.17582499975 0.07417500025 0.5
 O3 O 0.17582499975 0.07417500025 0.5
 O3 O 0.07417500025 0.17582499975 0.5
 O3 O 0.07417500025 0.17582499975 0.5
 O2 O 0.222424999 0.02757499925 0.5846000015
 O2 O 0.02757498625 0.02757499925 0.5846000015
 O2 O 0.222424999 0.222424999 0.6653999985
 O2 O 0.02757498625 0.222424999 0.6653999985
 O2 O 0.222424999 0.222424999 0.5846000015
 O2 O 0.02757498625 0.222424999 0.5846000015
 O2 O 0.222424999 0.02757499925 0.6653999985
 O2 O 0.02757498625 0.02757499925 0.6653999985
 O2 O 0.0846000015 0.222424999 0.5275749992500001
 O2 O 0.0846000015 0.02757498625 0.5275749992500001
 O2 O 0.1653999985 0.222424999 0.722424999
 O2 O 0.1653999985 0.02757498625 0.722424999
 O2 O 0.0846000015 0.222424999 0.722424999
 O2 O 0.0846000015 0.02757498625 0.722424999
 O2 O 0.1653999985 0.222424999 0.5275749992500001
 O2 O 0.1653999985 0.02757498625 0.5275749992500001
 O2 O 0.02757499925 0.0846000015 0.722424999
 O2 O 0.02757499925 0.0846000015 0.52757498625
 O2 O 0.222424999 0.1653999985 0.722424999
 O2 O 0.222424999 0.1653999985 0.52757498625
 O2 O 0.222424999 0.0846000015 0.722424999
 O2 O 0.222424999 0.0846000015 0.52757498625
 O2 O 0.02757499925 0.1653999985 0.722424999
 O2 O 0.02757499925 0.1653999985 0.52757498625
 O2 O 0.02757499925 0.222424999 0.6653999985
 O2 O 0.02757499925 0.02757498625 0.6653999985
 O2 O 0.222424999 0.222424999 0.5846000015
 O2 O 0.222424999 0.02757498625 0.5846000015
 O2 O 0.222424999 0.222424999 0.6653999985
 O2 O 0.222424999 0.02757498625 0.6653999985
 O2 O 0.02757499925 0.222424999 0.5846000015
 O2 O 0.02757499925 0.02757498625 0.5846000015
 O2 O 0.222424999 0.0846000015 0.722424999
 O2 O 0.02757498625 0.0846000015 0.722424999
 O2 O 0.222424999 0.1653999985 0.5275749992500001
 O2 O 0.02757498625 0.1653999985 0.5275749992500001
 O2 O 0.222424999 0.0846000015 0.5275749992500001
 O2 O 0.02757498625 0.0846000015 0.5275749992500001
 O2 O 0.222424999 0.1653999985 0.722424999
 O2 O 0.02757498625 0.1653999985 0.722424999
 O2 O 0.0846000015 0.02757499925 0.722424999
 O2 O 0.0846000015 0.02757499925 0.52757498625
 O2 O 0.1653999985 0.222424999 0.722424999
 O2 O 0.1653999985 0.222424999 0.52757498625
 O2 O 0.0846000015 0.222424999 0.722424999
 O2 O 0.0846000015 0.222424999 0.52757498625
 O2 O 0.1653999985 0.02757499925 0.722424999
 O2 O 0.1653999985 0.02757499925 0.52757498625
 T1 Si 0.0 0.04557500025 0.59210000175
 T1 Si 0.0 0.04557500025 0.59210000175
 T1 Si 0.0 0.204425007 0.6579000054999999
 T1 Si 0.0 0.204425007 0.6579000054999999
 T1 Si 0.0 0.204425007 0.59210000175
 T1 Si 0.0 0.204425007 0.59210000175
 T1 Si 0.0 0.04557500025 0.6579000054999999
 T1 Si 0.0 0.04557500025 0.6579000054999999
 T1 Si 0.09210000175 0.0 0.5455750002499999
 T1 Si 0.09210000175 0.0 0.5455750002499999
 T1 Si 0.1579000055 0.0 0.704425007
 T1 Si 0.1579000055 0.0 0.704425007
 T1 Si 0.09210000175 0.0 0.704425007
 T1 Si 0.09210000175 0.0 0.704425007
 T1 Si 0.1579000055 0.0 0.5455750002499999
 T1 Si 0.1579000055 0.0 0.5455750002499999
 T1 Si 0.04557500025 0.09210000175 0.5
 T1 Si 0.04557500025 0.09210000175 0.5
 T1 Si 0.204425007 0.1579000055 0.5
 T1 Si 0.204425007 0.1579000055 0.5
 T1 Si 0.204425007 0.09210000175 0.5
 T1 Si 0.204425007 0.09210000175 0.5
 T1 Si 0.04557500025 0.1579000055 0.5
 T1 Si 0.04557500025 0.1579000055 0.5
 T1 Si 0.04557500025 0.0 0.6579000054999999
 T1 Si 0.04557500025 0.0 0.6579000054999999
 T1 Si 0.204425007 0.0 0.59210000175
 T1 Si 0.204425007 0.0 0.59210000175
 T1 Si 0.204425007 0.0 0.6579000054999999
 T1 Si 0.204425007 0.0 0.6579000054999999
 T1 Si 0.04557500025 0.0 0.59210000175
 T1 Si 0.04557500025 0.0 0.59210000175
 T1 Si 0.0 0.09210000175 0.704425007
 T1 Si 0.0 0.09210000175 0.704425007
 T1 Si 0.0 0.1579000055 0.5455750002499999
 T1 Si 0.0 0.1579000055 0.5455750002499999
 T1 Si 0.0 0.09210000175 0.5455750002499999
 T1 Si 0.0 0.09210000175 0.5455750002499999
 T1 Si 0.0 0.1579000055 0.704425007
 T1 Si 0.0 0.1579000055 0.704425007
 T1 Si 0.09210000175 0.04557500025 0.5
 T1 Si 0.09210000175 0.04557500025 0.5
 T1 Si 0.1579000055 0.204425007 0.5
 T1 Si 0.1579000055 0.204425007 0.5
 T1 Si 0.09210000175 0.204425007 0.5
 T1 Si 0.09210000175 0.204425007 0.5
 T1 Si 0.1579000055 0.04557500025 0.5
 T1 Si 0.1579000055 0.04557500025 0.5
 O1 O 0.25 0.05305000025 0.625
 O1 O 0.25 0.05305000025 0.625
 O1 O 0.25 0.1969500035 0.625
 O1 O 0.25 0.1969500035 0.625
 O1 O 0.375 0.0 0.5530500002500001
 O1 O 0.375 0.0 0.5530500002500001
 O1 O 0.375 0.0 0.6969500035
 O1 O 0.375 0.0 0.6969500035
 O1 O 0.30305000025 0.125 0.5
 O1 O 0.30305000025 0.125 0.5
 O1 O 0.4469500035 0.125 0.5
 O1 O 0.4469500035 0.125 0.5
 O1 O 0.30305000025 0.0 0.625
 O1 O 0.30305000025 0.0 0.625
 O1 O 0.4469500035 0.0 0.625
 O1 O 0.4469500035 0.0 0.625
 O1 O 0.25 0.125 0.6969500035
 O1 O 0.25 0.125 0.6969500035
 O1 O 0.25 0.125 0.5530500002500001
 O1 O 0.25 0.125 0.5530500002500001
 O1 O 0.375 0.05305000025 0.5
 O1 O 0.375 0.05305000025 0.5
 O1 O 0.375 0.1969500035 0.5
 O1 O 0.375 0.1969500035 0.5
 O2 O 0.27757499925 0.02757499925 0.5846000015
 O2 O 0.472424999 0.222424999 0.6653999985
 O2 O 0.472424999 0.222424999 0.5846000015
 O2 O 0.27757499925 0.02757499925 0.6653999985
 O2 O 0.472424999 0.02757499925 0.6653999985
 O2 O 0.27757499925 0.222424999 0.5846000015
 O2 O 0.27757499925 0.222424999 0.6653999985
 O2 O 0.472424999 0.02757499925 0.5846000015
 O2 O 0.3346000015 0.02757499925 0.5275749992500001
 O2 O 0.4153999985 0.222424999 0.722424999
 O2 O 0.3346000015 0.222424999 0.722424999
 O2 O 0.4153999985 0.02757499925 0.5275749992500001
 O2 O 0.4153999985 0.222424999 0.5275749992500001
 O2 O 0.3346000015 0.02757499925 0.722424999
 O2 O 0.4153999985 0.02757499925 0.722424999
 O2 O 0.3346000015 0.222424999 0.5275749992500001
 O2 O 0.27757499925 0.0846000015 0.5275749992500001
 O2 O 0.472424999 0.1653999985 0.722424999
 O2 O 0.472424999 0.0846000015 0.722424999
 O2 O 0.27757499925 0.1653999985 0.5275749992500001
 O2 O 0.27757499925 0.1653999985 0.722424999
 O2 O 0.472424999 0.0846000015 0.5275749992500001
 O2 O 0.472424999 0.1653999985 0.5275749992500001
 O2 O 0.27757499925 0.0846000015 0.722424999
 O3 O 0.25 0.07417500025 0.57417500025
 O3 O 0.25 0.07417500025 0.57417500025
 O3 O 0.25 0.17582499975 0.67582499975
 O3 O 0.25 0.17582499975 0.67582499975
 O3 O 0.25 0.17582499975 0.57417500025
 O3 O 0.25 0.17582499975 0.57417500025
 O3 O 0.25 0.07417500025 0.67582499975
 O3 O 0.25 0.07417500025 0.67582499975
 O3 O 0.32417500025 0.0 0.57417500025
 O3 O 0.32417500025 0.0 0.57417500025
 O3 O 0.42582499975 0.0 0.67582499975
 O3 O 0.42582499975 0.0 0.67582499975
 O3 O 0.32417500025 0.0 0.67582499975
 O3 O 0.32417500025 0.0 0.67582499975
 O3 O 0.42582499975 0.0 0.57417500025
 O3 O 0.42582499975 0.0 0.57417500025
 O3 O 0.32417500025 0.07417500025 0.5
 O3 O 0.32417500025 0.07417500025 0.5
 O3 O 0.42582499975 0.17582499975 0.5
 O3 O 0.42582499975 0.17582499975 0.5
 O3 O 0.42582499975 0.07417500025 0.5
 O3 O 0.42582499975 0.07417500025 0.5
 O3 O 0.32417500025 0.17582499975 0.5
 O3 O 0.32417500025 0.17582499975 0.5
 O2 O 0.472424999 0.02757499925 0.5846000015
 O2 O 0.27757498625 0.02757499925 0.5846000015
 O2 O 0.472424999 0.222424999 0.6653999985
 O2 O 0.27757498625 0.222424999 0.6653999985
 O2 O 0.472424999 0.222424999 0.5846000015
 O2 O 0.27757498625 0.222424999 0.5846000015
 O2 O 0.472424999 0.02757499925 0.6653999985
 O2 O 0.27757498625 0.02757499925 0.6653999985
 O2 O 0.3346000015 0.222424999 0.5275749992500001
 O2 O 0.3346000015 0.02757498625 0.5275749992500001
 O2 O 0.4153999985 0.222424999 0.722424999
 O2 O 0.4153999985 0.02757498625 0.722424999
 O2 O 0.3346000015 0.222424999 0.722424999
 O2 O 0.3346000015 0.02757498625 0.722424999
 O2 O 0.4153999985 0.222424999 0.5275749992500001
 O2 O 0.4153999985 0.02757498625 0.5275749992500001
 O2 O 0.27757499925 0.0846000015 0.722424999
 O2 O 0.27757499925 0.0846000015 0.52757498625
 O2 O 0.472424999 0.1653999985 0.722424999
 O2 O 0.472424999 0.1653999985 0.52757498625
 O2 O 0.472424999 0.0846000015 0.722424999
 O2 O 0.472424999 0.0846000015 0.52757498625
 O2 O 0.27757499925 0.1653999985 0.722424999
 O2 O 0.27757499925 0.1653999985 0.52757498625
 O2 O 0.27757499925 0.222424999 0.6653999985
 O2 O 0.27757499925 0.02757498625 0.6653999985
 O2 O 0.472424999 0.222424999 0.5846000015
 O2 O 0.472424999 0.02757498625 0.5846000015
 O2 O 0.472424999 0.222424999 0.6653999985
 O2 O 0.472424999 0.02757498625 0.6653999985
 O2 O 0.27757499925 0.222424999 0.5846000015
 O2 O 0.27757499925 0.02757498625 0.5846000015
 O2 O 0.472424999 0.0846000015 0.722424999
 O2 O 0.27757498625 0.0846000015 0.722424999
 O2 O 0.472424999 0.1653999985 0.5275749992500001
 O2 O 0.27757498625 0.1653999985 0.5275749992500001
 O2 O 0.472424999 0.0846000015 0.5275749992500001
 O2 O 0.27757498625 0.0846000015 0.5275749992500001
 O2 O 0.472424999 0.1653999985 0.722424999
 O2 O 0.27757498625 0.1653999985 0.722424999
 O2 O 0.3346000015 0.02757499925 0.722424999
 O2 O 0.3346000015 0.02757499925 0.52757498625
 O2 O 0.4153999985 0.222424999 0.722424999
 O2 O 0.4153999985 0.222424999 0.52757498625
 O2 O 0.3346000015 0.222424999 0.722424999
 O2 O 0.3346000015 0.222424999 0.52757498625
 O2 O 0.4153999985 0.02757499925 0.722424999
 O2 O 0.4153999985 0.02757499925 0.52757498625
 T1 Si 0.25 0.04557500025 0.59210000175
 T1 Si 0.25 0.04557500025 0.59210000175
 T1 Si 0.25 0.204425007 0.6579000054999999
 T1 Si 0.25 0.204425007 0.6579000054999999
 T1 Si 0.25 0.204425007 0.59210000175
 T1 Si 0.25 0.204425007 0.59210000175
 T1 Si 0.25 0.04557500025 0.6579000054999999
 T1 Si 0.25 0.04557500025 0.6579000054999999
 T1 Si 0.34210000175 0.0 0.5455750002499999
 T1 Si 0.34210000175 0.0 0.5455750002499999
 T1 Si 0.4079000055 0.0 0.704425007
 T1 Si 0.4079000055 0.0 0.704425007
 T1 Si 0.34210000175 0.0 0.704425007
 T1 Si 0.34210000175 0.0 0.704425007
 T1 Si 0.4079000055 0.0 0.5455750002499999
 T1 Si 0.4079000055 0.0 0.5455750002499999
 T1 Si 0.29557500025 0.09210000175 0.5
 T1 Si 0.29557500025 0.09210000175 0.5
 T1 Si 0.454425007 0.1579000055 0.5
 T1 Si 0.454425007 0.1579000055 0.5
 T1 Si 0.454425007 0.09210000175 0.5
 T1 Si 0.454425007 0.09210000175 0.5
 T1 Si 0.29557500025 0.1579000055 0.5
 T1 Si 0.29557500025 0.1579000055 0.5
 T1 Si 0.29557500025 0.0 0.6579000054999999
 T1 Si 0.29557500025 0.0 0.6579000054999999
 T1 Si 0.454425007 0.0 0.59210000175
 T1 Si 0.454425007 0.0 0.59210000175
 T1 Si 0.454425007 0.0 0.6579000054999999
 T1 Si 0.454425007 0.0 0.6579000054999999
 T1 Si 0.29557500025 0.0 0.59210000175
 T1 Si 0.29557500025 0.0 0.59210000175
 T1 Si 0.25 0.09210000175 0.704425007
 T1 Si 0.25 0.09210000175 0.704425007
 T1 Si 0.25 0.1579000055 0.5455750002499999
 T1 Si 0.25 0.1579000055 0.5455750002499999
 T1 Si 0.25 0.09210000175 0.5455750002499999
 T1 Si 0.25 0.09210000175 0.5455750002499999
 T1 Si 0.25 0.1579000055 0.704425007
 T1 Si 0.25 0.1579000055 0.704425007
 T1 Si 0.34210000175 0.04557500025 0.5
 T1 Si 0.34210000175 0.04557500025 0.5
 T1 Si 0.4079000055 0.204425007 0.5
 T1 Si 0.4079000055 0.204425007 0.5
 T1 Si 0.34210000175 0.204425007 0.5
 T1 Si 0.34210000175 0.204425007 0.5
 T1 Si 0.4079000055 0.04557500025 0.5
 T1 Si 0.4079000055 0.04557500025 0.5
 O1 O 0.5 0.05305000025 0.625
 O1 O 0.5 0.05305000025 0.625
 O1 O 0.5 0.1969500035 0.625
 O1 O 0.5 0.1969500035 0.625
 O1 O 0.625 0.0 0.5530500002500001
 O1 O 0.625 0.0 0.5530500002500001
 O1 O 0.625 0.0 0.6969500035
 O1 O 0.625 0.0 0.6969500035
 O1 O 0.5530500002500001 0.125 0.5
 O1 O 0.5530500002500001 0.125 0.5
 O1 O 0.6969500035 0.125 0.5
 O1 O 0.6969500035 0.125 0.5
 O1 O 0.5530500002500001 0.0 0.625
 O1 O 0.5530500002500001 0.0 0.625
 O1 O 0.6969500035 0.0 0.625
 O1 O 0.6969500035 0.0 0.625
 O1 O 0.5 0.125 0.6969500035
 O1 O 0.5 0.125 0.6969500035
 O1 O 0.5 0.125 0.5530500002500001
 O1 O 0.5 0.125 0.5530500002500001
 O1 O 0.625 0.05305000025 0.5
 O1 O 0.625 0.05305000025 0.5
 O1 O 0.625 0.1969500035 0.5
 O1 O 0.625 0.1969500035 0.5
 O2 O 0.5275749992500001 0.02757499925 0.5846000015
 O2 O 0.722424999 0.222424999 0.6653999985
 O2 O 0.722424999 0.222424999 0.5846000015
 O2 O 0.5275749992500001 0.02757499925 0.6653999985
 O2 O 0.722424999 0.02757499925 0.6653999985
 O2 O 0.5275749992500001 0.222424999 0.5846000015
 O2 O 0.5275749992500001 0.222424999 0.6653999985
 O2 O 0.722424999 0.02757499925 0.5846000015
 O2 O 0.5846000015 0.02757499925 0.5275749992500001
 O2 O 0.6653999985 0.222424999 0.722424999
 O2 O 0.5846000015 0.222424999 0.722424999
 O2 O 0.6653999985 0.02757499925 0.5275749992500001
 O2 O 0.6653999985 0.222424999 0.5275749992500001
 O2 O 0.5846000015 0.02757499925 0.722424999
 O2 O 0.6653999985 0.02757499925 0.722424999
 O2 O 0.5846000015 0.222424999 0.5275749992500001
 O2 O 0.5275749992500001 0.0846000015 0.5275749992500001
 O2 O 0.722424999 0.1653999985 0.722424999
 O2 O 0.722424999 0.0846000015 0.722424999
 O2 O 0.5275749992500001 0.1653999985 0.5275749992500001
 O2 O 0.5275749992500001 0.1653999985 0.722424999
 O2 O 0.722424999 0.0846000015 0.5275749992500001
 O2 O 0.722424999 0.1653999985 0.5275749992500001
 O2 O 0.5275749992500001 0.0846000015 0.722424999
 O3 O 0.5 0.07417500025 0.57417500025
 O3 O 0.5 0.07417500025 0.57417500025
 O3 O 0.5 0.17582499975 0.67582499975
 O3 O 0.5 0.17582499975 0.67582499975
 O3 O 0.5 0.17582499975 0.57417500025
 O3 O 0.5 0.17582499975 0.57417500025
 O3 O 0.5 0.07417500025 0.67582499975
 O3 O 0.5 0.07417500025 0.67582499975
 O3 O 0.57417500025 0.0 0.57417500025
 O3 O 0.57417500025 0.0 0.57417500025
 O3 O 0.67582499975 0.0 0.67582499975
 O3 O 0.67582499975 0.0 0.67582499975
 O3 O 0.57417500025 0.0 0.67582499975
 O3 O 0.57417500025 0.0 0.67582499975
 O3 O 0.67582499975 0.0 0.57417500025
 O3 O 0.67582499975 0.0 0.57417500025
 O3 O 0.57417500025 0.07417500025 0.5
 O3 O 0.57417500025 0.07417500025 0.5
 O3 O 0.67582499975 0.17582499975 0.5
 O3 O 0.67582499975 0.17582499975 0.5
 O3 O 0.67582499975 0.07417500025 0.5
 O3 O 0.67582499975 0.07417500025 0.5
 O3 O 0.57417500025 0.17582499975 0.5
 O3 O 0.57417500025 0.17582499975 0.5
 O2 O 0.722424999 0.02757499925 0.5846000015
 O2 O 0.52757498625 0.02757499925 0.5846000015
 O2 O 0.722424999 0.222424999 0.6653999985
 O2 O 0.52757498625 0.222424999 0.6653999985
 O2 O 0.722424999 0.222424999 0.5846000015
 O2 O 0.52757498625 0.222424999 0.5846000015
 O2 O 0.722424999 0.02757499925 0.6653999985
 O2 O 0.52757498625 0.02757499925 0.6653999985
 O2 O 0.5846000015 0.222424999 0.5275749992500001
 O2 O 0.5846000015 0.02757498625 0.5275749992500001
 O2 O 0.6653999985 0.222424999 0.722424999
 O2 O 0.6653999985 0.02757498625 0.722424999
 O2 O 0.5846000015 0.222424999 0.722424999
 O2 O 0.5846000015 0.02757498625 0.722424999
 O2 O 0.6653999985 0.222424999 0.5275749992500001
 O2 O 0.6653999985 0.02757498625 0.5275749992500001
 O2 O 0.5275749992500001 0.0846000015 0.722424999
 O2 O 0.5275749992500001 0.0846000015 0.52757498625
 O2 O 0.722424999 0.1653999985 0.722424999
 O2 O 0.722424999 0.1653999985 0.52757498625
 O2 O 0.722424999 0.0846000015 0.722424999
 O2 O 0.722424999 0.0846000015 0.52757498625
 O2 O 0.5275749992500001 0.1653999985 0.722424999
 O2 O 0.5275749992500001 0.1653999985 0.52757498625
 O2 O 0.5275749992500001 0.222424999 0.6653999985
 O2 O 0.5275749992500001 0.02757498625 0.6653999985
 O2 O 0.722424999 0.222424999 0.5846000015
 O2 O 0.722424999 0.02757498625 0.5846000015
 O2 O 0.722424999 0.222424999 0.6653999985
 O2 O 0.722424999 0.02757498625 0.6653999985
 O2 O 0.5275749992500001 0.222424999 0.5846000015
 O2 O 0.5275749992500001 0.02757498625 0.5846000015
 O2 O 0.722424999 0.0846000015 0.722424999
 O2 O 0.52757498625 0.0846000015 0.722424999
 O2 O 0.722424999 0.1653999985 0.5275749992500001
 O2 O 0.52757498625 0.1653999985 0.5275749992500001
 O2 O 0.722424999 0.0846000015 0.5275749992500001
 O2 O 0.52757498625 0.0846000015 0.5275749992500001
 O2 O 0.722424999 0.1653999985 0.722424999
 O2 O 0.52757498625 0.1653999985 0.722424999
 O2 O 0.5846000015 0.02757499925 0.722424999
 O2 O 0.5846000015 0.02757499925 0.52757498625
 O2 O 0.6653999985 0.222424999 0.722424999
 O2 O 0.6653999985 0.222424999 0.52757498625
 O2 O 0.5846000015 0.222424999 0.722424999
 O2 O 0.5846000015 0.222424999 0.52757498625
 O2 O 0.6653999985 0.02757499925 0.722424999
 O2 O 0.6653999985 0.02757499925 0.52757498625
 T1 Si 0.5 0.04557500025 0.59210000175
 T1 Si 0.5 0.04557500025 0.59210000175
 T1 Si 0.5 0.204425007 0.6579000054999999
 T1 Si 0.5 0.204425007 0.6579000054999999
 T1 Si 0.5 0.204425007 0.59210000175
 T1 Si 0.5 0.204425007 0.59210000175
 T1 Si 0.5 0.04557500025 0.6579000054999999
 T1 Si 0.5 0.04557500025 0.6579000054999999
 T1 Si 0.59210000175 0.0 0.5455750002499999
 T1 Si 0.59210000175 0.0 0.5455750002499999
 T1 Si 0.6579000054999999 0.0 0.704425007
 T1 Si 0.6579000054999999 0.0 0.704425007
 T1 Si 0.59210000175 0.0 0.704425007
 T1 Si 0.59210000175 0.0 0.704425007
 T1 Si 0.6579000054999999 0.0 0.5455750002499999
 T1 Si 0.6579000054999999 0.0 0.5455750002499999
 T1 Si 0.5455750002499999 0.09210000175 0.5
 T1 Si 0.5455750002499999 0.09210000175 0.5
 T1 Si 0.704425007 0.1579000055 0.5
 T1 Si 0.704425007 0.1579000055 0.5
 T1 Si 0.704425007 0.09210000175 0.5
 T1 Si 0.704425007 0.09210000175 0.5
 T1 Si 0.5455750002499999 0.1579000055 0.5
 T1 Si 0.5455750002499999 0.1579000055 0.5
 T1 Si 0.5455750002499999 0.0 0.6579000054999999
 T1 Si 0.5455750002499999 0.0 0.6579000054999999
 T1 Si 0.704425007 0.0 0.59210000175
 T1 Si 0.704425007 0.0 0.59210000175
 T1 Si 0.704425007 0.0 0.6579000054999999
 T1 Si 0.704425007 0.0 0.6579000054999999
 T1 Si 0.5455750002499999 0.0 0.59210000175
 T1 Si 0.5455750002499999 0.0 0.59210000175
 T1 Si 0.5 0.09210000175 0.704425007
 T1 Si 0.5 0.09210000175 0.704425007
 T1 Si 0.5 0.1579000055 0.5455750002499999
 T1 Si 0.5 0.1579000055 0.5455750002499999
 T1 Si 0.5 0.09210000175 0.5455750002499999
 T1 Si 0.5 0.09210000175 0.5455750002499999
 T1 Si 0.5 0.1579000055 0.704425007
 T1 Si 0.5 0.1579000055 0.704425007
 T1 Si 0.59210000175 0.04557500025 0.5
 T1 Si 0.59210000175 0.04557500025 0.5
 T1 Si 0.6579000054999999 0.204425007 0.5
 T1 Si 0.6579000054999999 0.204425007 0.5
 T1 Si 0.59210000175 0.204425007 0.5
 T1 Si 0.59210000175 0.204425007 0.5
 T1 Si 0.6579000054999999 0.04557500025 0.5
 T1 Si 0.6579000054999999 0.04557500025 0.5
 O1 O 0.75 0.05305000025 0.625
 O1 O 0.75 0.05305000025 0.625
 O1 O 0.75 0.1969500035 0.625
 O1 O 0.75 0.1969500035 0.625
 O1 O 0.875 0.0 0.5530500002500001
 O1 O 0.875 0.0 0.5530500002500001
 O1 O 0.875 0.0 0.6969500035
 O1 O 0.875 0.0 0.6969500035
 O1 O 0.8030500002500001 0.125 0.5
 O1 O 0.8030500002500001 0.125 0.5
 O1 O 0.9469500035 0.125 0.5
 O1 O 0.9469500035 0.125 0.5
 O1 O 0.8030500002500001 0.0 0.625
 O1 O 0.8030500002500001 0.0 0.625
 O1 O 0.9469500035 0.0 0.625
 O1 O 0.9469500035 0.0 0.625
 O1 O 0.75 0.125 0.6969500035
 O1 O 0.75 0.125 0.6969500035
 O1 O 0.75 0.125 0.5530500002500001
 O1 O 0.75 0.125 0.5530500002500001
 O1 O 0.875 0.05305000025 0.5
 O1 O 0.875 0.05305000025 0.5
 O1 O 0.875 0.1969500035 0.5
 O1 O 0.875 0.1969500035 0.5
 O2 O 0.7775749992500001 0.02757499925 0.5846000015
 O2 O 0.972424999 0.222424999 0.6653999985
 O2 O 0.972424999 0.222424999 0.5846000015
 O2 O 0.7775749992500001 0.02757499925 0.6653999985
 O2 O 0.972424999 0.02757499925 0.6653999985
 O2 O 0.7775749992500001 0.222424999 0.5846000015
 O2 O 0.7775749992500001 0.222424999 0.6653999985
 O2 O 0.972424999 0.02757499925 0.5846000015
 O2 O 0.8346000015 0.02757499925 0.5275749992500001
 O2 O 0.9153999985 0.222424999 0.722424999
 O2 O 0.8346000015 0.222424999 0.722424999
 O2 O 0.9153999985 0.02757499925 0.5275749992500001
 O2 O 0.9153999985 0.222424999 0.5275749992500001
 O2 O 0.8346000015 0.02757499925 0.722424999
 O2 O 0.9153999985 0.02757499925 0.722424999
 O2 O 0.8346000015 0.222424999 0.5275749992500001
 O2 O 0.7775749992500001 0.0846000015 0.5275749992500001
 O2 O 0.972424999 0.1653999985 0.722424999
 O2 O 0.972424999 0.0846000015 0.722424999
 O2 O 0.7775749992500001 0.1653999985 0.5275749992500001
 O2 O 0.7775749992500001 0.1653999985 0.722424999
 O2 O 0.972424999 0.0846000015 0.5275749992500001
 O2 O 0.972424999 0.1653999985 0.5275749992500001
 O2 O 0.7775749992500001 0.0846000015 0.722424999
 O3 O 0.75 0.07417500025 0.57417500025
 O3 O 0.75 0.07417500025 0.57417500025
 O3 O 0.75 0.17582499975 0.67582499975
 O3 O 0.75 0.17582499975 0.67582499975
 O3 O 0.75 0.17582499975 0.57417500025
 O3 O 0.75 0.17582499975 0.57417500025
 O3 O 0.75 0.07417500025 0.67582499975
 O3 O 0.75 0.07417500025 0.67582499975
 O3 O 0.82417500025 0.0 0.57417500025
 O3 O 0.82417500025 0.0 0.57417500025
 O3 O 0.92582499975 0.0 0.67582499975
 O3 O 0.92582499975 0.0 0.67582499975
 O3 O 0.82417500025 0.0 0.67582499975
 O3 O 0.82417500025 0.0 0.67582499975
 O3 O 0.92582499975 0.0 0.57417500025
 O3 O 0.92582499975 0.0 0.57417500025
 O3 O 0.82417500025 0.07417500025 0.5
 O3 O 0.82417500025 0.07417500025 0.5
 O3 O 0.92582499975 0.17582499975 0.5
 O3 O 0.92582499975 0.17582499975 0.5
 O3 O 0.92582499975 0.07417500025 0.5
 O3 O 0.92582499975 0.07417500025 0.5
 O3 O 0.82417500025 0.17582499975 0.5
 O3 O 0.82417500025 0.17582499975 0.5
 O2 O 0.972424999 0.02757499925 0.5846000015
 O2 O 0.77757498625 0.02757499925 0.5846000015
 O2 O 0.972424999 0.222424999 0.6653999985
 O2 O 0.77757498625 0.222424999 0.6653999985
 O2 O 0.972424999 0.222424999 0.5846000015
 O2 O 0.77757498625 0.222424999 0.5846000015
 O2 O 0.972424999 0.02757499925 0.6653999985
 O2 O 0.77757498625 0.02757499925 0.6653999985
 O2 O 0.8346000015 0.222424999 0.5275749992500001
 O2 O 0.8346000015 0.02757498625 0.5275749992500001
 O2 O 0.9153999985 0.222424999 0.722424999
 O2 O 0.9153999985 0.02757498625 0.722424999
 O2 O 0.8346000015 0.222424999 0.722424999
 O2 O 0.8346000015 0.02757498625 0.722424999
 O2 O 0.9153999985 0.222424999 0.5275749992500001
 O2 O 0.9153999985 0.02757498625 0.5275749992500001
 O2 O 0.7775749992500001 0.0846000015 0.722424999
 O2 O 0.7775749992500001 0.0846000015 0.52757498625
 O2 O 0.972424999 0.1653999985 0.722424999
 O2 O 0.972424999 0.1653999985 0.52757498625
 O2 O 0.972424999 0.0846000015 0.722424999
 O2 O 0.972424999 0.0846000015 0.52757498625
 O2 O 0.7775749992500001 0.1653999985 0.722424999
 O2 O 0.7775749992500001 0.1653999985 0.52757498625
 O2 O 0.7775749992500001 0.222424999 0.6653999985
 O2 O 0.7775749992500001 0.02757498625 0.6653999985
 O2 O 0.972424999 0.222424999 0.5846000015
 O2 O 0.972424999 0.02757498625 0.5846000015
 O2 O 0.972424999 0.222424999 0.6653999985
 O2 O 0.972424999 0.02757498625 0.6653999985
 O2 O 0.7775749992500001 0.222424999 0.5846000015
 O2 O 0.7775749992500001 0.02757498625 0.5846000015
 O2 O 0.972424999 0.0846000015 0.722424999
 O2 O 0.77757498625 0.0846000015 0.722424999
 O2 O 0.972424999 0.1653999985 0.5275749992500001
 O2 O 0.77757498625 0.1653999985 0.5275749992500001
 O2 O 0.972424999 0.0846000015 0.5275749992500001
 O2 O 0.77757498625 0.0846000015 0.5275749992500001
 O2 O 0.972424999 0.1653999985 0.722424999
 O2 O 0.77757498625 0.1653999985 0.722424999
 O2 O 0.8346000015 0.02757499925 0.722424999
 O2 O 0.8346000015 0.02757499925 0.52757498625
 O2 O 0.9153999985 0.222424999 0.722424999
 O2 O 0.9153999985 0.222424999 0.52757498625
 O2 O 0.8346000015 0.222424999 0.722424999
 O2 O 0.8346000015 0.222424999 0.52757498625
 O2 O 0.9153999985 0.02757499925 0.722424999
 O2 O 0.9153999985 0.02757499925 0.52757498625
 T1 Si 0.75 0.04557500025 0.59210000175
 T1 Si 0.75 0.04557500025 0.59210000175
 T1 Si 0.75 0.204425007 0.6579000054999999
 T1 Si 0.75 0.204425007 0.6579000054999999
 T1 Si 0.75 0.204425007 0.59210000175
 T1 Si 0.75 0.204425007 0.59210000175
 T1 Si 0.75 0.04557500025 0.6579000054999999
 T1 Si 0.75 0.04557500025 0.6579000054999999
 T1 Si 0.84210000175 0.0 0.5455750002499999
 T1 Si 0.84210000175 0.0 0.5455750002499999
 T1 Si 0.9079000054999999 0.0 0.704425007
 T1 Si 0.9079000054999999 0.0 0.704425007
 T1 Si 0.84210000175 0.0 0.704425007
 T1 Si 0.84210000175 0.0 0.704425007
 T1 Si 0.9079000054999999 0.0 0.5455750002499999
 T1 Si 0.9079000054999999 0.0 0.5455750002499999
 T1 Si 0.7955750002499999 0.09210000175 0.5
 T1 Si 0.7955750002499999 0.09210000175 0.5
 T1 Si 0.954425007 0.1579000055 0.5
 T1 Si 0.954425007 0.1579000055 0.5
 T1 Si 0.954425007 0.09210000175 0.5
 T1 Si 0.954425007 0.09210000175 0.5
 T1 Si 0.7955750002499999 0.1579000055 0.5
 T1 Si 0.7955750002499999 0.1579000055 0.5
 T1 Si 0.7955750002499999 0.0 0.6579000054999999
 T1 Si 0.7955750002499999 0.0 0.6579000054999999
 T1 Si 0.954425007 0.0 0.59210000175
 T1 Si 0.954425007 0.0 0.59210000175
 T1 Si 0.954425007 0.0 0.6579000054999999
 T1 Si 0.954425007 0.0 0.6579000054999999
 T1 Si 0.7955750002499999 0.0 0.59210000175
 T1 Si 0.7955750002499999 0.0 0.59210000175
 T1 Si 0.75 0.09210000175 0.704425007
 T1 Si 0.75 0.09210000175 0.704425007
 T1 Si 0.75 0.1579000055 0.5455750002499999
 T1 Si 0.75 0.1579000055 0.5455750002499999
 T1 Si 0.75 0.09210000175 0.5455750002499999
 T1 Si 0.75 0.09210000175 0.5455750002499999
 T1 Si 0.75 0.1579000055 0.704425007
 T1 Si 0.75 0.1579000055 0.704425007
 T1 Si 0.84210000175 0.04557500025 0.5
 T1 Si 0.84210000175 0.04557500025 0.5
 T1 Si 0.9079000054999999 0.204425007 0.5
 T1 Si 0.9079000054999999 0.204425007 0.5
 T1 Si 0.84210000175 0.204425007 0.5
 T1 Si 0.84210000175 0.204425007 0.5
 T1 Si 0.9079000054999999 0.04557500025 0.5
 T1 Si 0.9079000054999999 0.04557500025 0.5
 O1 O 0.0 0.30305000025 0.625
 O1 O 0.0 0.30305000025 0.625
 O1 O 0.0 0.4469500035 0.625
 O1 O 0.0 0.4469500035 0.625
 O1 O 0.125 0.25 0.5530500002500001
 O1 O 0.125 0.25 0.5530500002500001
 O1 O 0.125 0.25 0.6969500035
 O1 O 0.125 0.25 0.6969500035
 O1 O 0.05305000025 0.375 0.5
 O1 O 0.05305000025 0.375 0.5
 O1 O 0.1969500035 0.375 0.5
 O1 O 0.1969500035 0.375 0.5
 O1 O 0.05305000025 0.25 0.625
 O1 O 0.05305000025 0.25 0.625
 O1 O 0.1969500035 0.25 0.625
 O1 O 0.1969500035 0.25 0.625
 O1 O 0.0 0.375 0.6969500035
 O1 O 0.0 0.375 0.6969500035
 O1 O 0.0 0.375 0.5530500002500001
 O1 O 0.0 0.375 0.5530500002500001
 O1 O 0.125 0.30305000025 0.5
 O1 O 0.125 0.30305000025 0.5
 O1 O 0.125 0.4469500035 0.5
 O1 O 0.125 0.4469500035 0.5
 O2 O 0.02757499925 0.27757499925 0.5846000015
 O2 O 0.222424999 0.472424999 0.6653999985
 O2 O 0.222424999 0.472424999 0.5846000015
 O2 O 0.02757499925 0.27757499925 0.6653999985
 O2 O 0.222424999 0.27757499925 0.6653999985
 O2 O 0.02757499925 0.472424999 0.5846000015
 O2 O 0.02757499925 0.472424999 0.6653999985
 O2 O 0.222424999 0.27757499925 0.5846000015
 O2 O 0.0846000015 0.27757499925 0.5275749992500001
 O2 O 0.1653999985 0.472424999 0.722424999
 O2 O 0.0846000015 0.472424999 0.722424999
 O2 O 0.1653999985 0.27757499925 0.5275749992500001
 O2 O 0.1653999985 0.472424999 0.5275749992500001
 O2 O 0.0846000015 0.27757499925 0.722424999
 O2 O 0.1653999985 0.27757499925 0.722424999
 O2 O 0.0846000015 0.472424999 0.5275749992500001
 O2 O 0.02757499925 0.3346000015 0.5275749992500001
 O2 O 0.222424999 0.4153999985 0.722424999
 O2 O 0.222424999 0.3346000015 0.722424999
 O2 O 0.02757499925 0.4153999985 0.5275749992500001
 O2 O 0.02757499925 0.4153999985 0.722424999
 O2 O 0.222424999 0.3346000015 0.5275749992500001
 O2 O 0.222424999 0.4153999985 0.5275749992500001
 O2 O 0.02757499925 0.3346000015 0.722424999
 O3 O 0.0 0.32417500025 0.57417500025
 O3 O 0.0 0.32417500025 0.57417500025
 O3 O 0.0 0.42582499975 0.67582499975
 O3 O 0.0 0.42582499975 0.67582499975
 O3 O 0.0 0.42582499975 0.57417500025
 O3 O 0.0 0.42582499975 0.57417500025
 O3 O 0.0 0.32417500025 0.67582499975
 O3 O 0.0 0.32417500025 0.67582499975
 O3 O 0.07417500025 0.25 0.57417500025
 O3 O 0.07417500025 0.25 0.57417500025
 O3 O 0.17582499975 0.25 0.67582499975
 O3 O 0.17582499975 0.25 0.67582499975
 O3 O 0.07417500025 0.25 0.67582499975
 O3 O 0.07417500025 0.25 0.67582499975
 O3 O 0.17582499975 0.25 0.57417500025
 O3 O 0.17582499975 0.25 0.57417500025
 O3 O 0.07417500025 0.32417500025 0.5
 O3 O 0.07417500025 0.32417500025 0.5
 O3 O 0.17582499975 0.42582499975 0.5
 O3 O 0.17582499975 0.42582499975 0.5
 O3 O 0.17582499975 0.32417500025 0.5
 O3 O 0.17582499975 0.32417500025 0.5
 O3 O 0.07417500025 0.42582499975 0.5
 O3 O 0.07417500025 0.42582499975 0.5
 O2 O 0.222424999 0.27757499925 0.5846000015
 O2 O 0.02757498625 0.27757499925 0.5846000015
 O2 O 0.222424999 0.472424999 0.6653999985
 O2 O 0.02757498625 0.472424999 0.6653999985
 O2 O 0.222424999 0.472424999 0.5846000015
 O2 O 0.02757498625 0.472424999 0.5846000015
 O2 O 0.222424999 0.27757499925 0.6653999985
 O2 O 0.02757498625 0.27757499925 0.6653999985
 O2 O 0.0846000015 0.472424999 0.5275749992500001
 O2 O 0.0846000015 0.27757498625 0.5275749992500001
 O2 O 0.1653999985 0.472424999 0.722424999
 O2 O 0.1653999985 0.27757498625 0.722424999
 O2 O 0.0846000015 0.472424999 0.722424999
 O2 O 0.0846000015 0.27757498625 0.722424999
 O2 O 0.1653999985 0.472424999 0.5275749992500001
 O2 O 0.1653999985 0.27757498625 0.5275749992500001
 O2 O 0.02757499925 0.3346000015 0.722424999
 O2 O 0.02757499925 0.3346000015 0.52757498625
 O2 O 0.222424999 0.4153999985 0.722424999
 O2 O 0.222424999 0.4153999985 0.52757498625
 O2 O 0.222424999 0.3346000015 0.722424999
 O2 O 0.222424999 0.3346000015 0.52757498625
 O2 O 0.02757499925 0.4153999985 0.722424999
 O2 O 0.02757499925 0.4153999985 0.52757498625
 O2 O 0.02757499925 0.472424999 0.6653999985
 O2 O 0.02757499925 0.27757498625 0.6653999985
 O2 O 0.222424999 0.472424999 0.5846000015
 O2 O 0.222424999 0.27757498625 0.5846000015
 O2 O 0.222424999 0.472424999 0.6653999985
 O2 O 0.222424999 0.27757498625 0.6653999985
 O2 O 0.02757499925 0.472424999 0.5846000015
 O2 O 0.02757499925 0.27757498625 0.5846000015
 O2 O 0.222424999 0.3346000015 0.722424999
 O2 O 0.02757498625 0.3346000015 0.722424999
 O2 O 0.222424999 0.4153999985 0.5275749992500001
 O2 O 0.02757498625 0.4153999985 0.5275749992500001
 O2 O 0.222424999 0.3346000015 0.5275749992500001
 O2 O 0.02757498625 0.3346000015 0.5275749992500001
 O2 O 0.222424999 0.4153999985 0.722424999
 O2 O 0.02757498625 0.4153999985 0.722424999
 O2 O 0.0846000015 0.27757499925 0.722424999
 O2 O 0.0846000015 0.27757499925 0.52757498625
 O2 O 0.1653999985 0.472424999 0.722424999
 O2 O 0.1653999985 0.472424999 0.52757498625
 O2 O 0.0846000015 0.472424999 0.722424999
 O2 O 0.0846000015 0.472424999 0.52757498625
 O2 O 0.1653999985 0.27757499925 0.722424999
 O2 O 0.1653999985 0.27757499925 0.52757498625
 T1 Si 0.0 0.29557500025 0.59210000175
 T1 Si 0.0 0.29557500025 0.59210000175
 T1 Si 0.0 0.454425007 0.6579000054999999
 T1 Si 0.0 0.454425007 0.6579000054999999
 T1 Si 0.0 0.454425007 0.59210000175
 T1 Si 0.0 0.454425007 0.59210000175
 T1 Si 0.0 0.29557500025 0.6579000054999999
 T1 Si 0.0 0.29557500025 0.6579000054999999
 T1 Si 0.09210000175 0.25 0.5455750002499999
 T1 Si 0.09210000175 0.25 0.5455750002499999
 T1 Si 0.1579000055 0.25 0.704425007
 T1 Si 0.1579000055 0.25 0.704425007
 T1 Si 0.09210000175 0.25 0.704425007
 T1 Si 0.09210000175 0.25 0.704425007
 T1 Si 0.1579000055 0.25 0.5455750002499999
 T1 Si 0.1579000055 0.25 0.5455750002499999
 T1 Si 0.04557500025 0.34210000175 0.5
 T1 Si 0.04557500025 0.34210000175 0.5
 T1 Si 0.204425007 0.4079000055 0.5
 T1 Si 0.204425007 0.4079000055 0.5
 T1 Si 0.204425007 0.34210000175 0.5
 T1 Si 0.204425007 0.34210000175 0.5
 T1 Si 0.04557500025 0.4079000055 0.5
 T1 Si 0.04557500025 0.4079000055 0.5
 T1 Si 0.04557500025 0.25 0.6579000054999999
 T1 Si 0.04557500025 0.25 0.6579000054999999
 T1 Si 0.204425007 0.25 0.59210000175
 T1 Si 0.204425007 0.25 0.59210000175
 T1 Si 0.204425007 0.25 0.6579000054999999
 T1 Si 0.204425007 0.25 0.6579000054999999
 T1 Si 0.04557500025 0.25 0.59210000175
 T1 Si 0.04557500025 0.25 0.59210000175
 T1 Si 0.0 0.34210000175 0.704425007
 T1 Si 0.0 0.34210000175 0.704425007
 T1 Si 0.0 0.4079000055 0.5455750002499999
 T1 Si 0.0 0.4079000055 0.5455750002499999
 T1 Si 0.0 0.34210000175 0.5455750002499999
 T1 Si 0.0 0.34210000175 0.5455750002499999
 T1 Si 0.0 0.4079000055 0.704425007
 T1 Si 0.0 0.4079000055 0.704425007
 T1 Si 0.09210000175 0.29557500025 0.5
 T1 Si 0.09210000175 0.29557500025 0.5
 T1 Si 0.1579000055 0.454425007 0.5
 T1 Si 0.1579000055 0.454425007 0.5
 T1 Si 0.09210000175 0.454425007 0.5
 T1 Si 0.09210000175 0.454425007 0.5
 T1 Si 0.1579000055 0.29557500025 0.5
 T1 Si 0.1579000055 0.29557500025 0.5
 O1 O 0.25 0.30305000025 0.625
 O1 O 0.25 0.30305000025 0.625
 O1 O 0.25 0.4469500035 0.625
 O1 O 0.25 0.4469500035 0.625
 O1 O 0.375 0.25 0.5530500002500001
 O1 O 0.375 0.25 0.5530500002500001
 O1 O 0.375 0.25 0.6969500035
 O1 O 0.375 0.25 0.6969500035
 O1 O 0.30305000025 0.375 0.5
 O1 O 0.30305000025 0.375 0.5
 O1 O 0.4469500035 0.375 0.5
 O1 O 0.4469500035 0.375 0.5
 O1 O 0.30305000025 0.25 0.625
 O1 O 0.30305000025 0.25 0.625
 O1 O 0.4469500035 0.25 0.625
 O1 O 0.4469500035 0.25 0.625
 O1 O 0.25 0.375 0.6969500035
 O1 O 0.25 0.375 0.6969500035
 O1 O 0.25 0.375 0.5530500002500001
 O1 O 0.25 0.375 0.5530500002500001
 O1 O 0.375 0.30305000025 0.5
 O1 O 0.375 0.30305000025 0.5
 O1 O 0.375 0.4469500035 0.5
 O1 O 0.375 0.4469500035 0.5
 O2 O 0.27757499925 0.27757499925 0.5846000015
 O2 O 0.472424999 0.472424999 0.6653999985
 O2 O 0.472424999 0.472424999 0.5846000015
 O2 O 0.27757499925 0.27757499925 0.6653999985
 O2 O 0.472424999 0.27757499925 0.6653999985
 O2 O 0.27757499925 0.472424999 0.5846000015
 O2 O 0.27757499925 0.472424999 0.6653999985
 O2 O 0.472424999 0.27757499925 0.5846000015
 O2 O 0.3346000015 0.27757499925 0.5275749992500001
 O2 O 0.4153999985 0.472424999 0.722424999
 O2 O 0.3346000015 0.472424999 0.722424999
 O2 O 0.4153999985 0.27757499925 0.5275749992500001
 O2 O 0.4153999985 0.472424999 0.5275749992500001
 O2 O 0.3346000015 0.27757499925 0.722424999
 O2 O 0.4153999985 0.27757499925 0.722424999
 O2 O 0.3346000015 0.472424999 0.5275749992500001
 O2 O 0.27757499925 0.3346000015 0.5275749992500001
 O2 O 0.472424999 0.4153999985 0.722424999
 O2 O 0.472424999 0.3346000015 0.722424999
 O2 O 0.27757499925 0.4153999985 0.5275749992500001
 O2 O 0.27757499925 0.4153999985 0.722424999
 O2 O 0.472424999 0.3346000015 0.5275749992500001
 O2 O 0.472424999 0.4153999985 0.5275749992500001
 O2 O 0.27757499925 0.3346000015 0.722424999
 O3 O 0.25 0.32417500025 0.57417500025
 O3 O 0.25 0.32417500025 0.57417500025
 O3 O 0.25 0.42582499975 0.67582499975
 O3 O 0.25 0.42582499975 0.67582499975
 O3 O 0.25 0.42582499975 0.57417500025
 O3 O 0.25 0.42582499975 0.57417500025
 O3 O 0.25 0.32417500025 0.67582499975
 O3 O 0.25 0.32417500025 0.67582499975
 O3 O 0.32417500025 0.25 0.57417500025
 O3 O 0.32417500025 0.25 0.57417500025
 O3 O 0.42582499975 0.25 0.67582499975
 O3 O 0.42582499975 0.25 0.67582499975
 O3 O 0.32417500025 0.25 0.67582499975
 O3 O 0.32417500025 0.25 0.67582499975
 O3 O 0.42582499975 0.25 0.57417500025
 O3 O 0.42582499975 0.25 0.57417500025
 O3 O 0.32417500025 0.32417500025 0.5
 O3 O 0.32417500025 0.32417500025 0.5
 O3 O 0.42582499975 0.42582499975 0.5
 O3 O 0.42582499975 0.42582499975 0.5
 O3 O 0.42582499975 0.32417500025 0.5
 O3 O 0.42582499975 0.32417500025 0.5
 O3 O 0.32417500025 0.42582499975 0.5
 O3 O 0.32417500025 0.42582499975 0.5
 O2 O 0.472424999 0.27757499925 0.5846000015
 O2 O 0.27757498625 0.27757499925 0.5846000015
 O2 O 0.472424999 0.472424999 0.6653999985
 O2 O 0.27757498625 0.472424999 0.6653999985
 O2 O 0.472424999 0.472424999 0.5846000015
 O2 O 0.27757498625 0.472424999 0.5846000015
 O2 O 0.472424999 0.27757499925 0.6653999985
 O2 O 0.27757498625 0.27757499925 0.6653999985
 O2 O 0.3346000015 0.472424999 0.5275749992500001
 O2 O 0.3346000015 0.27757498625 0.5275749992500001
 O2 O 0.4153999985 0.472424999 0.722424999
 O2 O 0.4153999985 0.27757498625 0.722424999
 O2 O 0.3346000015 0.472424999 0.722424999
 O2 O 0.3346000015 0.27757498625 0.722424999
 O2 O 0.4153999985 0.472424999 0.5275749992500001
 O2 O 0.4153999985 0.27757498625 0.5275749992500001
 O2 O 0.27757499925 0.3346000015 0.722424999
 O2 O 0.27757499925 0.3346000015 0.52757498625
 O2 O 0.472424999 0.4153999985 0.722424999
 O2 O 0.472424999 0.4153999985 0.52757498625
 O2 O 0.472424999 0.3346000015 0.722424999
 O2 O 0.472424999 0.3346000015 0.52757498625
 O2 O 0.27757499925 0.4153999985 0.722424999
 O2 O 0.27757499925 0.4153999985 0.52757498625
 O2 O 0.27757499925 0.472424999 0.6653999985
 O2 O 0.27757499925 0.27757498625 0.6653999985
 O2 O 0.472424999 0.472424999 0.5846000015
 O2 O 0.472424999 0.27757498625 0.5846000015
 O2 O 0.472424999 0.472424999 0.6653999985
 O2 O 0.472424999 0.27757498625 0.6653999985
 O2 O 0.27757499925 0.472424999 0.5846000015
 O2 O 0.27757499925 0.27757498625 0.5846000015
 O2 O 0.472424999 0.3346000015 0.722424999
 O2 O 0.27757498625 0.3346000015 0.722424999
 O2 O 0.472424999 0.4153999985 0.5275749992500001
 O2 O 0.27757498625 0.4153999985 0.5275749992500001
 O2 O 0.472424999 0.3346000015 0.5275749992500001
 O2 O 0.27757498625 0.3346000015 0.5275749992500001
 O2 O 0.472424999 0.4153999985 0.722424999
 O2 O 0.27757498625 0.4153999985 0.722424999
 O2 O 0.3346000015 0.27757499925 0.722424999
 O2 O 0.3346000015 0.27757499925 0.52757498625
 O2 O 0.4153999985 0.472424999 0.722424999
 O2 O 0.4153999985 0.472424999 0.52757498625
 O2 O 0.3346000015 0.472424999 0.722424999
 O2 O 0.3346000015 0.472424999 0.52757498625
 O2 O 0.4153999985 0.27757499925 0.722424999
 O2 O 0.4153999985 0.27757499925 0.52757498625
 T1 Si 0.25 0.29557500025 0.59210000175
 T1 Si 0.25 0.29557500025 0.59210000175
 T1 Si 0.25 0.454425007 0.6579000054999999
 T1 Si 0.25 0.454425007 0.6579000054999999
 T1 Si 0.25 0.454425007 0.59210000175
 T1 Si 0.25 0.454425007 0.59210000175
 T1 Si 0.25 0.29557500025 0.6579000054999999
 T1 Si 0.25 0.29557500025 0.6579000054999999
 T1 Si 0.34210000175 0.25 0.5455750002499999
 T1 Si 0.34210000175 0.25 0.5455750002499999
 T1 Si 0.4079000055 0.25 0.704425007
 T1 Si 0.4079000055 0.25 0.704425007
 T1 Si 0.34210000175 0.25 0.704425007
 T1 Si 0.34210000175 0.25 0.704425007
 T1 Si 0.4079000055 0.25 0.5455750002499999
 T1 Si 0.4079000055 0.25 0.5455750002499999
 T1 Si 0.29557500025 0.34210000175 0.5
 T1 Si 0.29557500025 0.34210000175 0.5
 T1 Si 0.454425007 0.4079000055 0.5
 T1 Si 0.454425007 0.4079000055 0.5
 T1 Si 0.454425007 0.34210000175 0.5
 T1 Si 0.454425007 0.34210000175 0.5
 T1 Si 0.29557500025 0.4079000055 0.5
 T1 Si 0.29557500025 0.4079000055 0.5
 T1 Si 0.29557500025 0.25 0.6579000054999999
 T1 Si 0.29557500025 0.25 0.6579000054999999
 T1 Si 0.454425007 0.25 0.59210000175
 T1 Si 0.454425007 0.25 0.59210000175
 T1 Si 0.454425007 0.25 0.6579000054999999
 T1 Si 0.454425007 0.25 0.6579000054999999
 T1 Si 0.29557500025 0.25 0.59210000175
 T1 Si 0.29557500025 0.25 0.59210000175
 T1 Si 0.25 0.34210000175 0.704425007
 T1 Si 0.25 0.34210000175 0.704425007
 T1 Si 0.25 0.4079000055 0.5455750002499999
 T1 Si 0.25 0.4079000055 0.5455750002499999
 T1 Si 0.25 0.34210000175 0.5455750002499999
 T1 Si 0.25 0.34210000175 0.5455750002499999
 T1 Si 0.25 0.4079000055 0.704425007
 T1 Si 0.25 0.4079000055 0.704425007
 T1 Si 0.34210000175 0.29557500025 0.5
 T1 Si 0.34210000175 0.29557500025 0.5
 T1 Si 0.4079000055 0.454425007 0.5
 T1 Si 0.4079000055 0.454425007 0.5
 T1 Si 0.34210000175 0.454425007 0.5
 T1 Si 0.34210000175 0.454425007 0.5
 T1 Si 0.4079000055 0.29557500025 0.5
 T1 Si 0.4079000055 0.29557500025 0.5
 O1 O 0.5 0.30305000025 0.625
 O1 O 0.5 0.30305000025 0.625
 O1 O 0.5 0.4469500035 0.625
 O1 O 0.5 0.4469500035 0.625
 O1 O 0.625 0.25 0.5530500002500001
 O1 O 0.625 0.25 0.5530500002500001
 O1 O 0.625 0.25 0.6969500035
 O1 O 0.625 0.25 0.6969500035
 O1 O 0.5530500002500001 0.375 0.5
 O1 O 0.5530500002500001 0.375 0.5
 O1 O 0.6969500035 0.375 0.5
 O1 O 0.6969500035 0.375 0.5
 O1 O 0.5530500002500001 0.25 0.625
 O1 O 0.5530500002500001 0.25 0.625
 O1 O 0.6969500035 0.25 0.625
 O1 O 0.6969500035 0.25 0.625
 O1 O 0.5 0.375 0.6969500035
 O1 O 0.5 0.375 0.6969500035
 O1 O 0.5 0.375 0.5530500002500001
 O1 O 0.5 0.375 0.5530500002500001
 O1 O 0.625 0.30305000025 0.5
 O1 O 0.625 0.30305000025 0.5
 O1 O 0.625 0.4469500035 0.5
 O1 O 0.625 0.4469500035 0.5
 O2 O 0.5275749992500001 0.27757499925 0.5846000015
 O2 O 0.722424999 0.472424999 0.6653999985
 O2 O 0.722424999 0.472424999 0.5846000015
 O2 O 0.5275749992500001 0.27757499925 0.6653999985
 O2 O 0.722424999 0.27757499925 0.6653999985
 O2 O 0.5275749992500001 0.472424999 0.5846000015
 O2 O 0.5275749992500001 0.472424999 0.6653999985
 O2 O 0.722424999 0.27757499925 0.5846000015
 O2 O 0.5846000015 0.27757499925 0.5275749992500001
 O2 O 0.6653999985 0.472424999 0.722424999
 O2 O 0.5846000015 0.472424999 0.722424999
 O2 O 0.6653999985 0.27757499925 0.5275749992500001
 O2 O 0.6653999985 0.472424999 0.5275749992500001
 O2 O 0.5846000015 0.27757499925 0.722424999
 O2 O 0.6653999985 0.27757499925 0.722424999
 O2 O 0.5846000015 0.472424999 0.5275749992500001
 O2 O 0.5275749992500001 0.3346000015 0.5275749992500001
 O2 O 0.722424999 0.4153999985 0.722424999
 O2 O 0.722424999 0.3346000015 0.722424999
 O2 O 0.5275749992500001 0.4153999985 0.5275749992500001
 O2 O 0.5275749992500001 0.4153999985 0.722424999
 O2 O 0.722424999 0.3346000015 0.5275749992500001
 O2 O 0.722424999 0.4153999985 0.5275749992500001
 O2 O 0.5275749992500001 0.3346000015 0.722424999
 O3 O 0.5 0.32417500025 0.57417500025
 O3 O 0.5 0.32417500025 0.57417500025
 O3 O 0.5 0.42582499975 0.67582499975
 O3 O 0.5 0.42582499975 0.67582499975
 O3 O 0.5 0.42582499975 0.57417500025
 O3 O 0.5 0.42582499975 0.57417500025
 O3 O 0.5 0.32417500025 0.67582499975
 O3 O 0.5 0.32417500025 0.67582499975
 O3 O 0.57417500025 0.25 0.57417500025
 O3 O 0.57417500025 0.25 0.57417500025
 O3 O 0.67582499975 0.25 0.67582499975
 O3 O 0.67582499975 0.25 0.67582499975
 O3 O 0.57417500025 0.25 0.67582499975
 O3 O 0.57417500025 0.25 0.67582499975
 O3 O 0.67582499975 0.25 0.57417500025
 O3 O 0.67582499975 0.25 0.57417500025
 O3 O 0.57417500025 0.32417500025 0.5
 O3 O 0.57417500025 0.32417500025 0.5
 O3 O 0.67582499975 0.42582499975 0.5
 O3 O 0.67582499975 0.42582499975 0.5
 O3 O 0.67582499975 0.32417500025 0.5
 O3 O 0.67582499975 0.32417500025 0.5
 O3 O 0.57417500025 0.42582499975 0.5
 O3 O 0.57417500025 0.42582499975 0.5
 O2 O 0.722424999 0.27757499925 0.5846000015
 O2 O 0.52757498625 0.27757499925 0.5846000015
 O2 O 0.722424999 0.472424999 0.6653999985
 O2 O 0.52757498625 0.472424999 0.6653999985
 O2 O 0.722424999 0.472424999 0.5846000015
 O2 O 0.52757498625 0.472424999 0.5846000015
 O2 O 0.722424999 0.27757499925 0.6653999985
 O2 O 0.52757498625 0.27757499925 0.6653999985
 O2 O 0.5846000015 0.472424999 0.5275749992500001
 O2 O 0.5846000015 0.27757498625 0.5275749992500001
 O2 O 0.6653999985 0.472424999 0.722424999
 O2 O 0.6653999985 0.27757498625 0.722424999
 O2 O 0.5846000015 0.472424999 0.722424999
 O2 O 0.5846000015 0.27757498625 0.722424999
 O2 O 0.6653999985 0.472424999 0.5275749992500001
 O2 O 0.6653999985 0.27757498625 0.5275749992500001
 O2 O 0.5275749992500001 0.3346000015 0.722424999
 O2 O 0.5275749992500001 0.3346000015 0.52757498625
 O2 O 0.722424999 0.4153999985 0.722424999
 O2 O 0.722424999 0.4153999985 0.52757498625
 O2 O 0.722424999 0.3346000015 0.722424999
 O2 O 0.722424999 0.3346000015 0.52757498625
 O2 O 0.5275749992500001 0.4153999985 0.722424999
 O2 O 0.5275749992500001 0.4153999985 0.52757498625
 O2 O 0.5275749992500001 0.472424999 0.6653999985
 O2 O 0.5275749992500001 0.27757498625 0.6653999985
 O2 O 0.722424999 0.472424999 0.5846000015
 O2 O 0.722424999 0.27757498625 0.5846000015
 O2 O 0.722424999 0.472424999 0.6653999985
 O2 O 0.722424999 0.27757498625 0.6653999985
 O2 O 0.5275749992500001 0.472424999 0.5846000015
 O2 O 0.5275749992500001 0.27757498625 0.5846000015
 O2 O 0.722424999 0.3346000015 0.722424999
 O2 O 0.52757498625 0.3346000015 0.722424999
 O2 O 0.722424999 0.4153999985 0.5275749992500001
 O2 O 0.52757498625 0.4153999985 0.5275749992500001
 O2 O 0.722424999 0.3346000015 0.5275749992500001
 O2 O 0.52757498625 0.3346000015 0.5275749992500001
 O2 O 0.722424999 0.4153999985 0.722424999
 O2 O 0.52757498625 0.4153999985 0.722424999
 O2 O 0.5846000015 0.27757499925 0.722424999
 O2 O 0.5846000015 0.27757499925 0.52757498625
 O2 O 0.6653999985 0.472424999 0.722424999
 O2 O 0.6653999985 0.472424999 0.52757498625
 O2 O 0.5846000015 0.472424999 0.722424999
 O2 O 0.5846000015 0.472424999 0.52757498625
 O2 O 0.6653999985 0.27757499925 0.722424999
 O2 O 0.6653999985 0.27757499925 0.52757498625
 T1 Si 0.5 0.29557500025 0.59210000175
 T1 Si 0.5 0.29557500025 0.59210000175
 T1 Si 0.5 0.454425007 0.6579000054999999
 T1 Si 0.5 0.454425007 0.6579000054999999
 T1 Si 0.5 0.454425007 0.59210000175
 T1 Si 0.5 0.454425007 0.59210000175
 T1 Si 0.5 0.29557500025 0.6579000054999999
 T1 Si 0.5 0.29557500025 0.6579000054999999
 T1 Si 0.59210000175 0.25 0.5455750002499999
 T1 Si 0.59210000175 0.25 0.5455750002499999
 T1 Si 0.6579000054999999 0.25 0.704425007
 T1 Si 0.6579000054999999 0.25 0.704425007
 T1 Si 0.59210000175 0.25 0.704425007
 T1 Si 0.59210000175 0.25 0.704425007
 T1 Si 0.6579000054999999 0.25 0.5455750002499999
 T1 Si 0.6579000054999999 0.25 0.5455750002499999
 T1 Si 0.5455750002499999 0.34210000175 0.5
 T1 Si 0.5455750002499999 0.34210000175 0.5
 T1 Si 0.704425007 0.4079000055 0.5
 T1 Si 0.704425007 0.4079000055 0.5
 T1 Si 0.704425007 0.34210000175 0.5
 T1 Si 0.704425007 0.34210000175 0.5
 T1 Si 0.5455750002499999 0.4079000055 0.5
 T1 Si 0.5455750002499999 0.4079000055 0.5
 T1 Si 0.5455750002499999 0.25 0.6579000054999999
 T1 Si 0.5455750002499999 0.25 0.6579000054999999
 T1 Si 0.704425007 0.25 0.59210000175
 T1 Si 0.704425007 0.25 0.59210000175
 T1 Si 0.704425007 0.25 0.6579000054999999
 T1 Si 0.704425007 0.25 0.6579000054999999
 T1 Si 0.5455750002499999 0.25 0.59210000175
 T1 Si 0.5455750002499999 0.25 0.59210000175
 T1 Si 0.5 0.34210000175 0.704425007
 T1 Si 0.5 0.34210000175 0.704425007
 T1 Si 0.5 0.4079000055 0.5455750002499999
 T1 Si 0.5 0.4079000055 0.5455750002499999
 T1 Si 0.5 0.34210000175 0.5455750002499999
 T1 Si 0.5 0.34210000175 0.5455750002499999
 T1 Si 0.5 0.4079000055 0.704425007
 T1 Si 0.5 0.4079000055 0.704425007
 T1 Si 0.59210000175 0.29557500025 0.5
 T1 Si 0.59210000175 0.29557500025 0.5
 T1 Si 0.6579000054999999 0.454425007 0.5
 T1 Si 0.6579000054999999 0.454425007 0.5
 T1 Si 0.59210000175 0.454425007 0.5
 T1 Si 0.59210000175 0.454425007 0.5
 T1 Si 0.6579000054999999 0.29557500025 0.5
 T1 Si 0.6579000054999999 0.29557500025 0.5
 O1 O 0.75 0.30305000025 0.625
 O1 O 0.75 0.30305000025 0.625
 O1 O 0.75 0.4469500035 0.625
 O1 O 0.75 0.4469500035 0.625
 O1 O 0.875 0.25 0.5530500002500001
 O1 O 0.875 0.25 0.5530500002500001
 O1 O 0.875 0.25 0.6969500035
 O1 O 0.875 0.25 0.6969500035
 O1 O 0.8030500002500001 0.375 0.5
 O1 O 0.8030500002500001 0.375 0.5
 O1 O 0.9469500035 0.375 0.5
 O1 O 0.9469500035 0.375 0.5
 O1 O 0.8030500002500001 0.25 0.625
 O1 O 0.8030500002500001 0.25 0.625
 O1 O 0.9469500035 0.25 0.625
 O1 O 0.9469500035 0.25 0.625
 O1 O 0.75 0.375 0.6969500035
 O1 O 0.75 0.375 0.6969500035
 O1 O 0.75 0.375 0.5530500002500001
 O1 O 0.75 0.375 0.5530500002500001
 O1 O 0.875 0.30305000025 0.5
 O1 O 0.875 0.30305000025 0.5
 O1 O 0.875 0.4469500035 0.5
 O1 O 0.875 0.4469500035 0.5
 O2 O 0.7775749992500001 0.27757499925 0.5846000015
 O2 O 0.972424999 0.472424999 0.6653999985
 O2 O 0.972424999 0.472424999 0.5846000015
 O2 O 0.7775749992500001 0.27757499925 0.6653999985
 O2 O 0.972424999 0.27757499925 0.6653999985
 O2 O 0.7775749992500001 0.472424999 0.5846000015
 O2 O 0.7775749992500001 0.472424999 0.6653999985
 O2 O 0.972424999 0.27757499925 0.5846000015
 O2 O 0.8346000015 0.27757499925 0.5275749992500001
 O2 O 0.9153999985 0.472424999 0.722424999
 O2 O 0.8346000015 0.472424999 0.722424999
 O2 O 0.9153999985 0.27757499925 0.5275749992500001
 O2 O 0.9153999985 0.472424999 0.5275749992500001
 O2 O 0.8346000015 0.27757499925 0.722424999
 O2 O 0.9153999985 0.27757499925 0.722424999
 O2 O 0.8346000015 0.472424999 0.5275749992500001
 O2 O 0.7775749992500001 0.3346000015 0.5275749992500001
 O2 O 0.972424999 0.4153999985 0.722424999
 O2 O 0.972424999 0.3346000015 0.722424999
 O2 O 0.7775749992500001 0.4153999985 0.5275749992500001
 O2 O 0.7775749992500001 0.4153999985 0.722424999
 O2 O 0.972424999 0.3346000015 0.5275749992500001
 O2 O 0.972424999 0.4153999985 0.5275749992500001
 O2 O 0.7775749992500001 0.3346000015 0.722424999
 O3 O 0.75 0.32417500025 0.57417500025
 O3 O 0.75 0.32417500025 0.57417500025
 O3 O 0.75 0.42582499975 0.67582499975
 O3 O 0.75 0.42582499975 0.67582499975
 O3 O 0.75 0.42582499975 0.57417500025
 O3 O 0.75 0.42582499975 0.57417500025
 O3 O 0.75 0.32417500025 0.67582499975
 O3 O 0.75 0.32417500025 0.67582499975
 O3 O 0.82417500025 0.25 0.57417500025
 O3 O 0.82417500025 0.25 0.57417500025
 O3 O 0.92582499975 0.25 0.67582499975
 O3 O 0.92582499975 0.25 0.67582499975
 O3 O 0.82417500025 0.25 0.67582499975
 O3 O 0.82417500025 0.25 0.67582499975
 O3 O 0.92582499975 0.25 0.57417500025
 O3 O 0.92582499975 0.25 0.57417500025
 O3 O 0.82417500025 0.32417500025 0.5
 O3 O 0.82417500025 0.32417500025 0.5
 O3 O 0.92582499975 0.42582499975 0.5
 O3 O 0.92582499975 0.42582499975 0.5
 O3 O 0.92582499975 0.32417500025 0.5
 O3 O 0.92582499975 0.32417500025 0.5
 O3 O 0.82417500025 0.42582499975 0.5
 O3 O 0.82417500025 0.42582499975 0.5
 O2 O 0.972424999 0.27757499925 0.5846000015
 O2 O 0.77757498625 0.27757499925 0.5846000015
 O2 O 0.972424999 0.472424999 0.6653999985
 O2 O 0.77757498625 0.472424999 0.6653999985
 O2 O 0.972424999 0.472424999 0.5846000015
 O2 O 0.77757498625 0.472424999 0.5846000015
 O2 O 0.972424999 0.27757499925 0.6653999985
 O2 O 0.77757498625 0.27757499925 0.6653999985
 O2 O 0.8346000015 0.472424999 0.5275749992500001
 O2 O 0.8346000015 0.27757498625 0.5275749992500001
 O2 O 0.9153999985 0.472424999 0.722424999
 O2 O 0.9153999985 0.27757498625 0.722424999
 O2 O 0.8346000015 0.472424999 0.722424999
 O2 O 0.8346000015 0.27757498625 0.722424999
 O2 O 0.9153999985 0.472424999 0.5275749992500001
 O2 O 0.9153999985 0.27757498625 0.5275749992500001
 O2 O 0.7775749992500001 0.3346000015 0.722424999
 O2 O 0.7775749992500001 0.3346000015 0.52757498625
 O2 O 0.972424999 0.4153999985 0.722424999
 O2 O 0.972424999 0.4153999985 0.52757498625
 O2 O 0.972424999 0.3346000015 0.722424999
 O2 O 0.972424999 0.3346000015 0.52757498625
 O2 O 0.7775749992500001 0.4153999985 0.722424999
 O2 O 0.7775749992500001 0.4153999985 0.52757498625
 O2 O 0.7775749992500001 0.472424999 0.6653999985
 O2 O 0.7775749992500001 0.27757498625 0.6653999985
 O2 O 0.972424999 0.472424999 0.5846000015
 O2 O 0.972424999 0.27757498625 0.5846000015
 O2 O 0.972424999 0.472424999 0.6653999985
 O2 O 0.972424999 0.27757498625 0.6653999985
 O2 O 0.7775749992500001 0.472424999 0.5846000015
 O2 O 0.7775749992500001 0.27757498625 0.5846000015
 O2 O 0.972424999 0.3346000015 0.722424999
 O2 O 0.77757498625 0.3346000015 0.722424999
 O2 O 0.972424999 0.4153999985 0.5275749992500001
 O2 O 0.77757498625 0.4153999985 0.5275749992500001
 O2 O 0.972424999 0.3346000015 0.5275749992500001
 O2 O 0.77757498625 0.3346000015 0.5275749992500001
 O2 O 0.972424999 0.4153999985 0.722424999
 O2 O 0.77757498625 0.4153999985 0.722424999
 O2 O 0.8346000015 0.27757499925 0.722424999
 O2 O 0.8346000015 0.27757499925 0.52757498625
 O2 O 0.9153999985 0.472424999 0.722424999
 O2 O 0.9153999985 0.472424999 0.52757498625
 O2 O 0.8346000015 0.472424999 0.722424999
 O2 O 0.8346000015 0.472424999 0.52757498625
 O2 O 0.9153999985 0.27757499925 0.722424999
 O2 O 0.9153999985 0.27757499925 0.52757498625
 T1 Si 0.75 0.29557500025 0.59210000175
 T1 Si 0.75 0.29557500025 0.59210000175
 T1 Si 0.75 0.454425007 0.6579000054999999
 T1 Si 0.75 0.454425007 0.6579000054999999
 T1 Si 0.75 0.454425007 0.59210000175
 T1 Si 0.75 0.454425007 0.59210000175
 T1 Si 0.75 0.29557500025 0.6579000054999999
 T1 Si 0.75 0.29557500025 0.6579000054999999
 T1 Si 0.84210000175 0.25 0.5455750002499999
 T1 Si 0.84210000175 0.25 0.5455750002499999
 T1 Si 0.9079000054999999 0.25 0.704425007
 T1 Si 0.9079000054999999 0.25 0.704425007
 T1 Si 0.84210000175 0.25 0.704425007
 T1 Si 0.84210000175 0.25 0.704425007
 T1 Si 0.9079000054999999 0.25 0.5455750002499999
 T1 Si 0.9079000054999999 0.25 0.5455750002499999
 T1 Si 0.7955750002499999 0.34210000175 0.5
 T1 Si 0.7955750002499999 0.34210000175 0.5
 T1 Si 0.954425007 0.4079000055 0.5
 T1 Si 0.954425007 0.4079000055 0.5
 T1 Si 0.954425007 0.34210000175 0.5
 T1 Si 0.954425007 0.34210000175 0.5
 T1 Si 0.7955750002499999 0.4079000055 0.5
 T1 Si 0.7955750002499999 0.4079000055 0.5
 T1 Si 0.7955750002499999 0.25 0.6579000054999999
 T1 Si 0.7955750002499999 0.25 0.6579000054999999
 T1 Si 0.954425007 0.25 0.59210000175
 T1 Si 0.954425007 0.25 0.59210000175
 T1 Si 0.954425007 0.25 0.6579000054999999
 T1 Si 0.954425007 0.25 0.6579000054999999
 T1 Si 0.7955750002499999 0.25 0.59210000175
 T1 Si 0.7955750002499999 0.25 0.59210000175
 T1 Si 0.75 0.34210000175 0.704425007
 T1 Si 0.75 0.34210000175 0.704425007
 T1 Si 0.75 0.4079000055 0.5455750002499999
 T1 Si 0.75 0.4079000055 0.5455750002499999
 T1 Si 0.75 0.34210000175 0.5455750002499999
 T1 Si 0.75 0.34210000175 0.5455750002499999
 T1 Si 0.75 0.4079000055 0.704425007
 T1 Si 0.75 0.4079000055 0.704425007
 T1 Si 0.84210000175 0.29557500025 0.5
 T1 Si 0.84210000175 0.29557500025 0.5
 T1 Si 0.9079000054999999 0.454425007 0.5
 T1 Si 0.9079000054999999 0.454425007 0.5
 T1 Si 0.84210000175 0.454425007 0.5
 T1 Si 0.84210000175 0.454425007 0.5
 T1 Si 0.9079000054999999 0.29557500025 0.5
 T1 Si 0.9079000054999999 0.29557500025 0.5
 O1 O 0.0 0.5530500002500001 0.625
 O1 O 0.0 0.5530500002500001 0.625
 O1 O 0.0 0.6969500035 0.625
 O1 O 0.0 0.6969500035 0.625
 O1 O 0.125 0.5 0.5530500002500001
 O1 O 0.125 0.5 0.5530500002500001
 O1 O 0.125 0.5 0.6969500035
 O1 O 0.125 0.5 0.6969500035
 O1 O 0.05305000025 0.625 0.5
 O1 O 0.05305000025 0.625 0.5
 O1 O 0.1969500035 0.625 0.5
 O1 O 0.1969500035 0.625 0.5
 O1 O 0.05305000025 0.5 0.625
 O1 O 0.05305000025 0.5 0.625
 O1 O 0.1969500035 0.5 0.625
 O1 O 0.1969500035 0.5 0.625
 O1 O 0.0 0.625 0.6969500035
 O1 O 0.0 0.625 0.6969500035
 O1 O 0.0 0.625 0.5530500002500001
 O1 O 0.0 0.625 0.5530500002500001
 O1 O 0.125 0.5530500002500001 0.5
 O1 O 0.125 0.5530500002500001 0.5
 O1 O 0.125 0.6969500035 0.5
 O1 O 0.125 0.6969500035 0.5
 O2 O 0.02757499925 0.5275749992500001 0.5846000015
 O2 O 0.222424999 0.722424999 0.6653999985
 O2 O 0.222424999 0.722424999 0.5846000015
 O2 O 0.02757499925 0.5275749992500001 0.6653999985
 O2 O 0.222424999 0.5275749992500001 0.6653999985
 O2 O 0.02757499925 0.722424999 0.5846000015
 O2 O 0.02757499925 0.722424999 0.6653999985
 O2 O 0.222424999 0.5275749992500001 0.5846000015
 O2 O 0.0846000015 0.5275749992500001 0.5275749992500001
 O2 O 0.1653999985 0.722424999 0.722424999
 O2 O 0.0846000015 0.722424999 0.722424999
 O2 O 0.1653999985 0.5275749992500001 0.5275749992500001
 O2 O 0.1653999985 0.722424999 0.5275749992500001
 O2 O 0.0846000015 0.5275749992500001 0.722424999
 O2 O 0.1653999985 0.5275749992500001 0.722424999
 O2 O 0.0846000015 0.722424999 0.5275749992500001
 O2 O 0.02757499925 0.5846000015 0.5275749992500001
 O2 O 0.222424999 0.6653999985 0.722424999
 O2 O 0.222424999 0.5846000015 0.722424999
 O2 O 0.02757499925 0.6653999985 0.5275749992500001
 O2 O 0.02757499925 0.6653999985 0.722424999
 O2 O 0.222424999 0.5846000015 0.5275749992500001
 O2 O 0.222424999 0.6653999985 0.5275749992500001
 O2 O 0.02757499925 0.5846000015 0.722424999
 O3 O 0.0 0.57417500025 0.57417500025
 O3 O 0.0 0.57417500025 0.57417500025
 O3 O 0.0 0.67582499975 0.67582499975
 O3 O 0.0 0.67582499975 0.67582499975
 O3 O 0.0 0.67582499975 0.57417500025
 O3 O 0.0 0.67582499975 0.57417500025
 O3 O 0.0 0.57417500025 0.67582499975
 O3 O 0.0 0.57417500025 0.67582499975
 O3 O 0.07417500025 0.5 0.57417500025
 O3 O 0.07417500025 0.5 0.57417500025
 O3 O 0.17582499975 0.5 0.67582499975
 O3 O 0.17582499975 0.5 0.67582499975
 O3 O 0.07417500025 0.5 0.67582499975
 O3 O 0.07417500025 0.5 0.67582499975
 O3 O 0.17582499975 0.5 0.57417500025
 O3 O 0.17582499975 0.5 0.57417500025
 O3 O 0.07417500025 0.57417500025 0.5
 O3 O 0.07417500025 0.57417500025 0.5
 O3 O 0.17582499975 0.67582499975 0.5
 O3 O 0.17582499975 0.67582499975 0.5
 O3 O 0.17582499975 0.57417500025 0.5
 O3 O 0.17582499975 0.57417500025 0.5
 O3 O 0.07417500025 0.67582499975 0.5
 O3 O 0.07417500025 0.67582499975 0.5
 O2 O 0.222424999 0.5275749992500001 0.5846000015
 O2 O 0.02757498625 0.5275749992500001 0.5846000015
 O2 O 0.222424999 0.722424999 0.6653999985
 O2 O 0.02757498625 0.722424999 0.6653999985
 O2 O 0.222424999 0.722424999 0.5846000015
 O2 O 0.02757498625 0.722424999 0.5846000015
 O2 O 0.222424999 0.5275749992500001 0.6653999985
 O2 O 0.02757498625 0.5275749992500001 0.6653999985
 O2 O 0.0846000015 0.722424999 0.5275749992500001
 O2 O 0.0846000015 0.52757498625 0.5275749992500001
 O2 O 0.1653999985 0.722424999 0.722424999
 O2 O 0.1653999985 0.52757498625 0.722424999
 O2 O 0.0846000015 0.722424999 0.722424999
 O2 O 0.0846000015 0.52757498625 0.722424999
 O2 O 0.1653999985 0.722424999 0.5275749992500001
 O2 O 0.1653999985 0.52757498625 0.5275749992500001
 O2 O 0.02757499925 0.5846000015 0.722424999
 O2 O 0.02757499925 0.5846000015 0.52757498625
 O2 O 0.222424999 0.6653999985 0.722424999
 O2 O 0.222424999 0.6653999985 0.52757498625
 O2 O 0.222424999 0.5846000015 0.722424999
 O2 O 0.222424999 0.5846000015 0.52757498625
 O2 O 0.02757499925 0.6653999985 0.722424999
 O2 O 0.02757499925 0.6653999985 0.52757498625
 O2 O 0.02757499925 0.722424999 0.6653999985
 O2 O 0.02757499925 0.52757498625 0.6653999985
 O2 O 0.222424999 0.722424999 0.5846000015
 O2 O 0.222424999 0.52757498625 0.5846000015
 O2 O 0.222424999 0.722424999 0.6653999985
 O2 O 0.222424999 0.52757498625 0.6653999985
 O2 O 0.02757499925 0.722424999 0.5846000015
 O2 O 0.02757499925 0.52757498625 0.5846000015
 O2 O 0.222424999 0.5846000015 0.722424999
 O2 O 0.02757498625 0.5846000015 0.722424999
 O2 O 0.222424999 0.6653999985 0.5275749992500001
 O2 O 0.02757498625 0.6653999985 0.5275749992500001
 O2 O 0.222424999 0.5846000015 0.5275749992500001
 O2 O 0.02757498625 0.5846000015 0.5275749992500001
 O2 O 0.222424999 0.6653999985 0.722424999
 O2 O 0.02757498625 0.6653999985 0.722424999
 O2 O 0.0846000015 0.5275749992500001 0.722424999
 O2 O 0.0846000015 0.5275749992500001 0.52757498625
 O2 O 0.1653999985 0.722424999 0.722424999
 O2 O 0.1653999985 0.722424999 0.52757498625
 O2 O 0.0846000015 0.722424999 0.722424999
 O2 O 0.0846000015 0.722424999 0.52757498625
 O2 O 0.1653999985 0.5275749992500001 0.722424999
 O2 O 0.1653999985 0.5275749992500001 0.52757498625
 T1 Si 0.0 0.5455750002499999 0.59210000175
 T1 Si 0.0 0.5455750002499999 0.59210000175
 T1 Si 0.0 0.704425007 0.6579000054999999
 T1 Si 0.0 0.704425007 0.6579000054999999
 T1 Si 0.0 0.704425007 0.59210000175
 T1 Si 0.0 0.704425007 0.59210000175
 T1 Si 0.0 0.5455750002499999 0.6579000054999999
 T1 Si 0.0 0.5455750002499999 0.6579000054999999
 T1 Si 0.09210000175 0.5 0.5455750002499999
 T1 Si 0.09210000175 0.5 0.5455750002499999
 T1 Si 0.1579000055 0.5 0.704425007
 T1 Si 0.1579000055 0.5 0.704425007
 T1 Si 0.09210000175 0.5 0.704425007
 T1 Si 0.09210000175 0.5 0.704425007
 T1 Si 0.1579000055 0.5 0.5455750002499999
 T1 Si 0.1579000055 0.5 0.5455750002499999
 T1 Si 0.04557500025 0.59210000175 0.5
 T1 Si 0.04557500025 0.59210000175 0.5
 T1 Si 0.204425007 0.6579000054999999 0.5
 T1 Si 0.204425007 0.6579000054999999 0.5
 T1 Si 0.204425007 0.59210000175 0.5
 T1 Si 0.204425007 0.59210000175 0.5
 T1 Si 0.04557500025 0.6579000054999999 0.5
 T1 Si 0.04557500025 0.6579000054999999 0.5
 T1 Si 0.04557500025 0.5 0.6579000054999999
 T1 Si 0.04557500025 0.5 0.6579000054999999
 T1 Si 0.204425007 0.5 0.59210000175
 T1 Si 0.204425007 0.5 0.59210000175
 T1 Si 0.204425007 0.5 0.6579000054999999
 T1 Si 0.204425007 0.5 0.6579000054999999
 T1 Si 0.04557500025 0.5 0.59210000175
 T1 Si 0.04557500025 0.5 0.59210000175
 T1 Si 0.0 0.59210000175 0.704425007
 T1 Si 0.0 0.59210000175 0.704425007
 T1 Si 0.0 0.6579000054999999 0.5455750002499999
 T1 Si 0.0 0.6579000054999999 0.5455750002499999
 T1 Si 0.0 0.59210000175 0.5455750002499999
 T1 Si 0.0 0.59210000175 0.5455750002499999
 T1 Si 0.0 0.6579000054999999 0.704425007
 T1 Si 0.0 0.6579000054999999 0.704425007
 T1 Si 0.09210000175 0.5455750002499999 0.5
 T1 Si 0.09210000175 0.5455750002499999 0.5
 T1 Si 0.1579000055 0.704425007 0.5
 T1 Si 0.1579000055 0.704425007 0.5
 T1 Si 0.09210000175 0.704425007 0.5
 T1 Si 0.09210000175 0.704425007 0.5
 T1 Si 0.1579000055 0.5455750002499999 0.5
 T1 Si 0.1579000055 0.5455750002499999 0.5
 O1 O 0.25 0.5530500002500001 0.625
 O1 O 0.25 0.5530500002500001 0.625
 O1 O 0.25 0.6969500035 0.625
 O1 O 0.25 0.6969500035 0.625
 O1 O 0.375 0.5 0.5530500002500001
 O1 O 0.375 0.5 0.5530500002500001
 O1 O 0.375 0.5 0.6969500035
 O1 O 0.375 0.5 0.6969500035
 O1 O 0.30305000025 0.625 0.5
 O1 O 0.30305000025 0.625 0.5
 O1 O 0.4469500035 0.625 0.5
 O1 O 0.4469500035 0.625 0.5
 O1 O 0.30305000025 0.5 0.625
 O1 O 0.30305000025 0.5 0.625
 O1 O 0.4469500035 0.5 0.625
 O1 O 0.4469500035 0.5 0.625
 O1 O 0.25 0.625 0.6969500035
 O1 O 0.25 0.625 0.6969500035
 O1 O 0.25 0.625 0.5530500002500001
 O1 O 0.25 0.625 0.5530500002500001
 O1 O 0.375 0.5530500002500001 0.5
 O1 O 0.375 0.5530500002500001 0.5
 O1 O 0.375 0.6969500035 0.5
 O1 O 0.375 0.6969500035 0.5
 O2 O 0.27757499925 0.5275749992500001 0.5846000015
 O2 O 0.472424999 0.722424999 0.6653999985
 O2 O 0.472424999 0.722424999 0.5846000015
 O2 O 0.27757499925 0.5275749992500001 0.6653999985
 O2 O 0.472424999 0.5275749992500001 0.6653999985
 O2 O 0.27757499925 0.722424999 0.5846000015
 O2 O 0.27757499925 0.722424999 0.6653999985
 O2 O 0.472424999 0.5275749992500001 0.5846000015
 O2 O 0.3346000015 0.5275749992500001 0.5275749992500001
 O2 O 0.4153999985 0.722424999 0.722424999
 O2 O 0.3346000015 0.722424999 0.722424999
 O2 O 0.4153999985 0.5275749992500001 0.5275749992500001
 O2 O 0.4153999985 0.722424999 0.5275749992500001
 O2 O 0.3346000015 0.5275749992500001 0.722424999
 O2 O 0.4153999985 0.5275749992500001 0.722424999
 O2 O 0.3346000015 0.722424999 0.5275749992500001
 O2 O 0.27757499925 0.5846000015 0.5275749992500001
 O2 O 0.472424999 0.6653999985 0.722424999
 O2 O 0.472424999 0.5846000015 0.722424999
 O2 O 0.27757499925 0.6653999985 0.5275749992500001
 O2 O 0.27757499925 0.6653999985 0.722424999
 O2 O 0.472424999 0.5846000015 0.5275749992500001
 O2 O 0.472424999 0.6653999985 0.5275749992500001
 O2 O 0.27757499925 0.5846000015 0.722424999
 O3 O 0.25 0.57417500025 0.57417500025
 O3 O 0.25 0.57417500025 0.57417500025
 O3 O 0.25 0.67582499975 0.67582499975
 O3 O 0.25 0.67582499975 0.67582499975
 O3 O 0.25 0.67582499975 0.57417500025
 O3 O 0.25 0.67582499975 0.57417500025
 O3 O 0.25 0.57417500025 0.67582499975
 O3 O 0.25 0.57417500025 0.67582499975
 O3 O 0.32417500025 0.5 0.57417500025
 O3 O 0.32417500025 0.5 0.57417500025
 O3 O 0.42582499975 0.5 0.67582499975
 O3 O 0.42582499975 0.5 0.67582499975
 O3 O 0.32417500025 0.5 0.67582499975
 O3 O 0.32417500025 0.5 0.67582499975
 O3 O 0.42582499975 0.5 0.57417500025
 O3 O 0.42582499975 0.5 0.57417500025
 O3 O 0.32417500025 0.57417500025 0.5
 O3 O 0.32417500025 0.57417500025 0.5
 O3 O 0.42582499975 0.67582499975 0.5
 O3 O 0.42582499975 0.67582499975 0.5
 O3 O 0.42582499975 0.57417500025 0.5
 O3 O 0.42582499975 0.57417500025 0.5
 O3 O 0.32417500025 0.67582499975 0.5
 O3 O 0.32417500025 0.67582499975 0.5
 O2 O 0.472424999 0.5275749992500001 0.5846000015
 O2 O 0.27757498625 0.5275749992500001 0.5846000015
 O2 O 0.472424999 0.722424999 0.6653999985
 O2 O 0.27757498625 0.722424999 0.6653999985
 O2 O 0.472424999 0.722424999 0.5846000015
 O2 O 0.27757498625 0.722424999 0.5846000015
 O2 O 0.472424999 0.5275749992500001 0.6653999985
 O2 O 0.27757498625 0.5275749992500001 0.6653999985
 O2 O 0.3346000015 0.722424999 0.5275749992500001
 O2 O 0.3346000015 0.52757498625 0.5275749992500001
 O2 O 0.4153999985 0.722424999 0.722424999
 O2 O 0.4153999985 0.52757498625 0.722424999
 O2 O 0.3346000015 0.722424999 0.722424999
 O2 O 0.3346000015 0.52757498625 0.722424999
 O2 O 0.4153999985 0.722424999 0.5275749992500001
 O2 O 0.4153999985 0.52757498625 0.5275749992500001
 O2 O 0.27757499925 0.5846000015 0.722424999
 O2 O 0.27757499925 0.5846000015 0.52757498625
 O2 O 0.472424999 0.6653999985 0.722424999
 O2 O 0.472424999 0.6653999985 0.52757498625
 O2 O 0.472424999 0.5846000015 0.722424999
 O2 O 0.472424999 0.5846000015 0.52757498625
 O2 O 0.27757499925 0.6653999985 0.722424999
 O2 O 0.27757499925 0.6653999985 0.52757498625
 O2 O 0.27757499925 0.722424999 0.6653999985
 O2 O 0.27757499925 0.52757498625 0.6653999985
 O2 O 0.472424999 0.722424999 0.5846000015
 O2 O 0.472424999 0.52757498625 0.5846000015
 O2 O 0.472424999 0.722424999 0.6653999985
 O2 O 0.472424999 0.52757498625 0.6653999985
 O2 O 0.27757499925 0.722424999 0.5846000015
 O2 O 0.27757499925 0.52757498625 0.5846000015
 O2 O 0.472424999 0.5846000015 0.722424999
 O2 O 0.27757498625 0.5846000015 0.722424999
 O2 O 0.472424999 0.6653999985 0.5275749992500001
 O2 O 0.27757498625 0.6653999985 0.5275749992500001
 O2 O 0.472424999 0.5846000015 0.5275749992500001
 O2 O 0.27757498625 0.5846000015 0.5275749992500001
 O2 O 0.472424999 0.6653999985 0.722424999
 O2 O 0.27757498625 0.6653999985 0.722424999
 O2 O 0.3346000015 0.5275749992500001 0.722424999
 O2 O 0.3346000015 0.5275749992500001 0.52757498625
 O2 O 0.4153999985 0.722424999 0.722424999
 O2 O 0.4153999985 0.722424999 0.52757498625
 O2 O 0.3346000015 0.722424999 0.722424999
 O2 O 0.3346000015 0.722424999 0.52757498625
 O2 O 0.4153999985 0.5275749992500001 0.722424999
 O2 O 0.4153999985 0.5275749992500001 0.52757498625
 T1 Si 0.25 0.5455750002499999 0.59210000175
 T1 Si 0.25 0.5455750002499999 0.59210000175
 T1 Si 0.25 0.704425007 0.6579000054999999
 T1 Si 0.25 0.704425007 0.6579000054999999
 T1 Si 0.25 0.704425007 0.59210000175
 T1 Si 0.25 0.704425007 0.59210000175
 T1 Si 0.25 0.5455750002499999 0.6579000054999999
 T1 Si 0.25 0.5455750002499999 0.6579000054999999
 T1 Si 0.34210000175 0.5 0.5455750002499999
 T1 Si 0.34210000175 0.5 0.5455750002499999
 T1 Si 0.4079000055 0.5 0.704425007
 T1 Si 0.4079000055 0.5 0.704425007
 T1 Si 0.34210000175 0.5 0.704425007
 T1 Si 0.34210000175 0.5 0.704425007
 T1 Si 0.4079000055 0.5 0.5455750002499999
 T1 Si 0.4079000055 0.5 0.5455750002499999
 T1 Si 0.29557500025 0.59210000175 0.5
 T1 Si 0.29557500025 0.59210000175 0.5
 T1 Si 0.454425007 0.6579000054999999 0.5
 T1 Si 0.454425007 0.6579000054999999 0.5
 T1 Si 0.454425007 0.59210000175 0.5
 T1 Si 0.454425007 0.59210000175 0.5
 T1 Si 0.29557500025 0.6579000054999999 0.5
 T1 Si 0.29557500025 0.6579000054999999 0.5
 T1 Si 0.29557500025 0.5 0.6579000054999999
 T1 Si 0.29557500025 0.5 0.6579000054999999
 T1 Si 0.454425007 0.5 0.59210000175
 T1 Si 0.454425007 0.5 0.59210000175
 T1 Si 0.454425007 0.5 0.6579000054999999
 T1 Si 0.454425007 0.5 0.6579000054999999
 T1 Si 0.29557500025 0.5 0.59210000175
 T1 Si 0.29557500025 0.5 0.59210000175
 T1 Si 0.25 0.59210000175 0.704425007
 T1 Si 0.25 0.59210000175 0.704425007
 T1 Si 0.25 0.6579000054999999 0.5455750002499999
 T1 Si 0.25 0.6579000054999999 0.5455750002499999
 T1 Si 0.25 0.59210000175 0.5455750002499999
 T1 Si 0.25 0.59210000175 0.5455750002499999
 T1 Si 0.25 0.6579000054999999 0.704425007
 T1 Si 0.25 0.6579000054999999 0.704425007
 T1 Si 0.34210000175 0.5455750002499999 0.5
 T1 Si 0.34210000175 0.5455750002499999 0.5
 T1 Si 0.4079000055 0.704425007 0.5
 T1 Si 0.4079000055 0.704425007 0.5
 T1 Si 0.34210000175 0.704425007 0.5
 T1 Si 0.34210000175 0.704425007 0.5
 T1 Si 0.4079000055 0.5455750002499999 0.5
 T1 Si 0.4079000055 0.5455750002499999 0.5
 O1 O 0.5 0.5530500002500001 0.625
 O1 O 0.5 0.5530500002500001 0.625
 O1 O 0.5 0.6969500035 0.625
 O1 O 0.5 0.6969500035 0.625
 O1 O 0.625 0.5 0.5530500002500001
 O1 O 0.625 0.5 0.5530500002500001
 O1 O 0.625 0.5 0.6969500035
 O1 O 0.625 0.5 0.6969500035
 O1 O 0.5530500002500001 0.625 0.5
 O1 O 0.5530500002500001 0.625 0.5
 O1 O 0.6969500035 0.625 0.5
 O1 O 0.6969500035 0.625 0.5
 O1 O 0.5530500002500001 0.5 0.625
 O1 O 0.5530500002500001 0.5 0.625
 O1 O 0.6969500035 0.5 0.625
 O1 O 0.6969500035 0.5 0.625
 O1 O 0.5 0.625 0.6969500035
 O1 O 0.5 0.625 0.6969500035
 O1 O 0.5 0.625 0.5530500002500001
 O1 O 0.5 0.625 0.5530500002500001
 O1 O 0.625 0.5530500002500001 0.5
 O1 O 0.625 0.5530500002500001 0.5
 O1 O 0.625 0.6969500035 0.5
 O1 O 0.625 0.6969500035 0.5
 O2 O 0.5275749992500001 0.5275749992500001 0.5846000015
 O2 O 0.722424999 0.722424999 0.6653999985
 O2 O 0.722424999 0.722424999 0.5846000015
 O2 O 0.5275749992500001 0.5275749992500001 0.6653999985
 O2 O 0.722424999 0.5275749992500001 0.6653999985
 O2 O 0.5275749992500001 0.722424999 0.5846000015
 O2 O 0.5275749992500001 0.722424999 0.6653999985
 O2 O 0.722424999 0.5275749992500001 0.5846000015
 O2 O 0.5846000015 0.5275749992500001 0.5275749992500001
 O2 O 0.6653999985 0.722424999 0.722424999
 O2 O 0.5846000015 0.722424999 0.722424999
 O2 O 0.6653999985 0.5275749992500001 0.5275749992500001
 O2 O 0.6653999985 0.722424999 0.5275749992500001
 O2 O 0.5846000015 0.5275749992500001 0.722424999
 O2 O 0.6653999985 0.5275749992500001 0.722424999
 O2 O 0.5846000015 0.722424999 0.5275749992500001
 O2 O 0.5275749992500001 0.5846000015 0.5275749992500001
 O2 O 0.722424999 0.6653999985 0.722424999
 O2 O 0.722424999 0.5846000015 0.722424999
 O2 O 0.5275749992500001 0.6653999985 0.5275749992500001
 O2 O 0.5275749992500001 0.6653999985 0.722424999
 O2 O 0.722424999 0.5846000015 0.5275749992500001
 O2 O 0.722424999 0.6653999985 0.5275749992500001
 O2 O 0.5275749992500001 0.5846000015 0.722424999
 O3 O 0.5 0.57417500025 0.57417500025
 O3 O 0.5 0.57417500025 0.57417500025
 O3 O 0.5 0.67582499975 0.67582499975
 O3 O 0.5 0.67582499975 0.67582499975
 O3 O 0.5 0.67582499975 0.57417500025
 O3 O 0.5 0.67582499975 0.57417500025
 O3 O 0.5 0.57417500025 0.67582499975
 O3 O 0.5 0.57417500025 0.67582499975
 O3 O 0.57417500025 0.5 0.57417500025
 O3 O 0.57417500025 0.5 0.57417500025
 O3 O 0.67582499975 0.5 0.67582499975
 O3 O 0.67582499975 0.5 0.67582499975
 O3 O 0.57417500025 0.5 0.67582499975
 O3 O 0.57417500025 0.5 0.67582499975
 O3 O 0.67582499975 0.5 0.57417500025
 O3 O 0.67582499975 0.5 0.57417500025
 O3 O 0.57417500025 0.57417500025 0.5
 O3 O 0.57417500025 0.57417500025 0.5
 O3 O 0.67582499975 0.67582499975 0.5
 O3 O 0.67582499975 0.67582499975 0.5
 O3 O 0.67582499975 0.57417500025 0.5
 O3 O 0.67582499975 0.57417500025 0.5
 O3 O 0.57417500025 0.67582499975 0.5
 O3 O 0.57417500025 0.67582499975 0.5
 O2 O 0.722424999 0.5275749992500001 0.5846000015
 O2 O 0.52757498625 0.5275749992500001 0.5846000015
 O2 O 0.722424999 0.722424999 0.6653999985
 O2 O 0.52757498625 0.722424999 0.6653999985
 O2 O 0.722424999 0.722424999 0.5846000015
 O2 O 0.52757498625 0.722424999 0.5846000015
 O2 O 0.722424999 0.5275749992500001 0.6653999985
 O2 O 0.52757498625 0.5275749992500001 0.6653999985
 O2 O 0.5846000015 0.722424999 0.5275749992500001
 O2 O 0.5846000015 0.52757498625 0.5275749992500001
 O2 O 0.6653999985 0.722424999 0.722424999
 O2 O 0.6653999985 0.52757498625 0.722424999
 O2 O 0.5846000015 0.722424999 0.722424999
 O2 O 0.5846000015 0.52757498625 0.722424999
 O2 O 0.6653999985 0.722424999 0.5275749992500001
 O2 O 0.6653999985 0.52757498625 0.5275749992500001
 O2 O 0.5275749992500001 0.5846000015 0.722424999
 O2 O 0.5275749992500001 0.5846000015 0.52757498625
 O2 O 0.722424999 0.6653999985 0.722424999
 O2 O 0.722424999 0.6653999985 0.52757498625
 O2 O 0.722424999 0.5846000015 0.722424999
 O2 O 0.722424999 0.5846000015 0.52757498625
 O2 O 0.5275749992500001 0.6653999985 0.722424999
 O2 O 0.5275749992500001 0.6653999985 0.52757498625
 O2 O 0.5275749992500001 0.722424999 0.6653999985
 O2 O 0.5275749992500001 0.52757498625 0.6653999985
 O2 O 0.722424999 0.722424999 0.5846000015
 O2 O 0.722424999 0.52757498625 0.5846000015
 O2 O 0.722424999 0.722424999 0.6653999985
 O2 O 0.722424999 0.52757498625 0.6653999985
 O2 O 0.5275749992500001 0.722424999 0.5846000015
 O2 O 0.5275749992500001 0.52757498625 0.5846000015
 O2 O 0.722424999 0.5846000015 0.722424999
 O2 O 0.52757498625 0.5846000015 0.722424999
 O2 O 0.722424999 0.6653999985 0.5275749992500001
 O2 O 0.52757498625 0.6653999985 0.5275749992500001
 O2 O 0.722424999 0.5846000015 0.5275749992500001
 O2 O 0.52757498625 0.5846000015 0.5275749992500001
 O2 O 0.722424999 0.6653999985 0.722424999
 O2 O 0.52757498625 0.6653999985 0.722424999
 O2 O 0.5846000015 0.5275749992500001 0.722424999
 O2 O 0.5846000015 0.5275749992500001 0.52757498625
 O2 O 0.6653999985 0.722424999 0.722424999
 O2 O 0.6653999985 0.722424999 0.52757498625
 O2 O 0.5846000015 0.722424999 0.722424999
 O2 O 0.5846000015 0.722424999 0.52757498625
 O2 O 0.6653999985 0.5275749992500001 0.722424999
 O2 O 0.6653999985 0.5275749992500001 0.52757498625
 T1 Si 0.5 0.5455750002499999 0.59210000175
 T1 Si 0.5 0.5455750002499999 0.59210000175
 T1 Si 0.5 0.704425007 0.6579000054999999
 T1 Si 0.5 0.704425007 0.6579000054999999
 T1 Si 0.5 0.704425007 0.59210000175
 T1 Si 0.5 0.704425007 0.59210000175
 T1 Si 0.5 0.5455750002499999 0.6579000054999999
 T1 Si 0.5 0.5455750002499999 0.6579000054999999
 T1 Si 0.59210000175 0.5 0.5455750002499999
 T1 Si 0.59210000175 0.5 0.5455750002499999
 T1 Si 0.6579000054999999 0.5 0.704425007
 T1 Si 0.6579000054999999 0.5 0.704425007
 T1 Si 0.59210000175 0.5 0.704425007
 T1 Si 0.59210000175 0.5 0.704425007
 T1 Si 0.6579000054999999 0.5 0.5455750002499999
 T1 Si 0.6579000054999999 0.5 0.5455750002499999
 T1 Si 0.5455750002499999 0.59210000175 0.5
 T1 Si 0.5455750002499999 0.59210000175 0.5
 T1 Si 0.704425007 0.6579000054999999 0.5
 T1 Si 0.704425007 0.6579000054999999 0.5
 T1 Si 0.704425007 0.59210000175 0.5
 T1 Si 0.704425007 0.59210000175 0.5
 T1 Si 0.5455750002499999 0.6579000054999999 0.5
 T1 Si 0.5455750002499999 0.6579000054999999 0.5
 T1 Si 0.5455750002499999 0.5 0.6579000054999999
 T1 Si 0.5455750002499999 0.5 0.6579000054999999
 T1 Si 0.704425007 0.5 0.59210000175
 T1 Si 0.704425007 0.5 0.59210000175
 T1 Si 0.704425007 0.5 0.6579000054999999
 T1 Si 0.704425007 0.5 0.6579000054999999
 T1 Si 0.5455750002499999 0.5 0.59210000175
 T1 Si 0.5455750002499999 0.5 0.59210000175
 T1 Si 0.5 0.59210000175 0.704425007
 T1 Si 0.5 0.59210000175 0.704425007
 T1 Si 0.5 0.6579000054999999 0.5455750002499999
 T1 Si 0.5 0.6579000054999999 0.5455750002499999
 T1 Si 0.5 0.59210000175 0.5455750002499999
 T1 Si 0.5 0.59210000175 0.5455750002499999
 T1 Si 0.5 0.6579000054999999 0.704425007
 T1 Si 0.5 0.6579000054999999 0.704425007
 T1 Si 0.59210000175 0.5455750002499999 0.5
 T1 Si 0.59210000175 0.5455750002499999 0.5
 T1 Si 0.6579000054999999 0.704425007 0.5
 T1 Si 0.6579000054999999 0.704425007 0.5
 T1 Si 0.59210000175 0.704425007 0.5
 T1 Si 0.59210000175 0.704425007 0.5
 T1 Si 0.6579000054999999 0.5455750002499999 0.5
 T1 Si 0.6579000054999999 0.5455750002499999 0.5
 O1 O 0.75 0.5530500002500001 0.625
 O1 O 0.75 0.5530500002500001 0.625
 O1 O 0.75 0.6969500035 0.625
 O1 O 0.75 0.6969500035 0.625
 O1 O 0.875 0.5 0.5530500002500001
 O1 O 0.875 0.5 0.5530500002500001
 O1 O 0.875 0.5 0.6969500035
 O1 O 0.875 0.5 0.6969500035
 O1 O 0.8030500002500001 0.625 0.5
 O1 O 0.8030500002500001 0.625 0.5
 O1 O 0.9469500035 0.625 0.5
 O1 O 0.9469500035 0.625 0.5
 O1 O 0.8030500002500001 0.5 0.625
 O1 O 0.8030500002500001 0.5 0.625
 O1 O 0.9469500035 0.5 0.625
 O1 O 0.9469500035 0.5 0.625
 O1 O 0.75 0.625 0.6969500035
 O1 O 0.75 0.625 0.6969500035
 O1 O 0.75 0.625 0.5530500002500001
 O1 O 0.75 0.625 0.5530500002500001
 O1 O 0.875 0.5530500002500001 0.5
 O1 O 0.875 0.5530500002500001 0.5
 O1 O 0.875 0.6969500035 0.5
 O1 O 0.875 0.6969500035 0.5
 O2 O 0.7775749992500001 0.5275749992500001 0.5846000015
 O2 O 0.972424999 0.722424999 0.6653999985
 O2 O 0.972424999 0.722424999 0.5846000015
 O2 O 0.7775749992500001 0.5275749992500001 0.6653999985
 O2 O 0.972424999 0.5275749992500001 0.6653999985
 O2 O 0.7775749992500001 0.722424999 0.5846000015
 O2 O 0.7775749992500001 0.722424999 0.6653999985
 O2 O 0.972424999 0.5275749992500001 0.5846000015
 O2 O 0.8346000015 0.5275749992500001 0.5275749992500001
 O2 O 0.9153999985 0.722424999 0.722424999
 O2 O 0.8346000015 0.722424999 0.722424999
 O2 O 0.9153999985 0.5275749992500001 0.5275749992500001
 O2 O 0.9153999985 0.722424999 0.5275749992500001
 O2 O 0.8346000015 0.5275749992500001 0.722424999
 O2 O 0.9153999985 0.5275749992500001 0.722424999
 O2 O 0.8346000015 0.722424999 0.5275749992500001
 O2 O 0.7775749992500001 0.5846000015 0.5275749992500001
 O2 O 0.972424999 0.6653999985 0.722424999
 O2 O 0.972424999 0.5846000015 0.722424999
 O2 O 0.7775749992500001 0.6653999985 0.5275749992500001
 O2 O 0.7775749992500001 0.6653999985 0.722424999
 O2 O 0.972424999 0.5846000015 0.5275749992500001
 O2 O 0.972424999 0.6653999985 0.5275749992500001
 O2 O 0.7775749992500001 0.5846000015 0.722424999
 O3 O 0.75 0.57417500025 0.57417500025
 O3 O 0.75 0.57417500025 0.57417500025
 O3 O 0.75 0.67582499975 0.67582499975
 O3 O 0.75 0.67582499975 0.67582499975
 O3 O 0.75 0.67582499975 0.57417500025
 O3 O 0.75 0.67582499975 0.57417500025
 O3 O 0.75 0.57417500025 0.67582499975
 O3 O 0.75 0.57417500025 0.67582499975
 O3 O 0.82417500025 0.5 0.57417500025
 O3 O 0.82417500025 0.5 0.57417500025
 O3 O 0.92582499975 0.5 0.67582499975
 O3 O 0.92582499975 0.5 0.67582499975
 O3 O 0.82417500025 0.5 0.67582499975
 O3 O 0.82417500025 0.5 0.67582499975
 O3 O 0.92582499975 0.5 0.57417500025
 O3 O 0.92582499975 0.5 0.57417500025
 O3 O 0.82417500025 0.57417500025 0.5
 O3 O 0.82417500025 0.57417500025 0.5
 O3 O 0.92582499975 0.67582499975 0.5
 O3 O 0.92582499975 0.67582499975 0.5
 O3 O 0.92582499975 0.57417500025 0.5
 O3 O 0.92582499975 0.57417500025 0.5
 O3 O 0.82417500025 0.67582499975 0.5
 O3 O 0.82417500025 0.67582499975 0.5
 O2 O 0.972424999 0.5275749992500001 0.5846000015
 O2 O 0.77757498625 0.5275749992500001 0.5846000015
 O2 O 0.972424999 0.722424999 0.6653999985
 O2 O 0.77757498625 0.722424999 0.6653999985
 O2 O 0.972424999 0.722424999 0.5846000015
 O2 O 0.77757498625 0.722424999 0.5846000015
 O2 O 0.972424999 0.5275749992500001 0.6653999985
 O2 O 0.77757498625 0.5275749992500001 0.6653999985
 O2 O 0.8346000015 0.722424999 0.5275749992500001
 O2 O 0.8346000015 0.52757498625 0.5275749992500001
 O2 O 0.9153999985 0.722424999 0.722424999
 O2 O 0.9153999985 0.52757498625 0.722424999
 O2 O 0.8346000015 0.722424999 0.722424999
 O2 O 0.8346000015 0.52757498625 0.722424999
 O2 O 0.9153999985 0.722424999 0.5275749992500001
 O2 O 0.9153999985 0.52757498625 0.5275749992500001
 O2 O 0.7775749992500001 0.5846000015 0.722424999
 O2 O 0.7775749992500001 0.5846000015 0.52757498625
 O2 O 0.972424999 0.6653999985 0.722424999
 O2 O 0.972424999 0.6653999985 0.52757498625
 O2 O 0.972424999 0.5846000015 0.722424999
 O2 O 0.972424999 0.5846000015 0.52757498625
 O2 O 0.7775749992500001 0.6653999985 0.722424999
 O2 O 0.7775749992500001 0.6653999985 0.52757498625
 O2 O 0.7775749992500001 0.722424999 0.6653999985
 O2 O 0.7775749992500001 0.52757498625 0.6653999985
 O2 O 0.972424999 0.722424999 0.5846000015
 O2 O 0.972424999 0.52757498625 0.5846000015
 O2 O 0.972424999 0.722424999 0.6653999985
 O2 O 0.972424999 0.52757498625 0.6653999985
 O2 O 0.7775749992500001 0.722424999 0.5846000015
 O2 O 0.7775749992500001 0.52757498625 0.5846000015
 O2 O 0.972424999 0.5846000015 0.722424999
 O2 O 0.77757498625 0.5846000015 0.722424999
 O2 O 0.972424999 0.6653999985 0.5275749992500001
 O2 O 0.77757498625 0.6653999985 0.5275749992500001
 O2 O 0.972424999 0.5846000015 0.5275749992500001
 O2 O 0.77757498625 0.5846000015 0.5275749992500001
 O2 O 0.972424999 0.6653999985 0.722424999
 O2 O 0.77757498625 0.6653999985 0.722424999
 O2 O 0.8346000015 0.5275749992500001 0.722424999
 O2 O 0.8346000015 0.5275749992500001 0.52757498625
 O2 O 0.9153999985 0.722424999 0.722424999
 O2 O 0.9153999985 0.722424999 0.52757498625
 O2 O 0.8346000015 0.722424999 0.722424999
 O2 O 0.8346000015 0.722424999 0.52757498625
 O2 O 0.9153999985 0.5275749992500001 0.722424999
 O2 O 0.9153999985 0.5275749992500001 0.52757498625
 T1 Si 0.75 0.5455750002499999 0.59210000175
 T1 Si 0.75 0.5455750002499999 0.59210000175
 T1 Si 0.75 0.704425007 0.6579000054999999
 T1 Si 0.75 0.704425007 0.6579000054999999
 T1 Si 0.75 0.704425007 0.59210000175
 T1 Si 0.75 0.704425007 0.59210000175
 T1 Si 0.75 0.5455750002499999 0.6579000054999999
 T1 Si 0.75 0.5455750002499999 0.6579000054999999
 T1 Si 0.84210000175 0.5 0.5455750002499999
 T1 Si 0.84210000175 0.5 0.5455750002499999
 T1 Si 0.9079000054999999 0.5 0.704425007
 T1 Si 0.9079000054999999 0.5 0.704425007
 T1 Si 0.84210000175 0.5 0.704425007
 T1 Si 0.84210000175 0.5 0.704425007
 T1 Si 0.9079000054999999 0.5 0.5455750002499999
 T1 Si 0.9079000054999999 0.5 0.5455750002499999
 T1 Si 0.7955750002499999 0.59210000175 0.5
 T1 Si 0.7955750002499999 0.59210000175 0.5
 T1 Si 0.954425007 0.6579000054999999 0.5
 T1 Si 0.954425007 0.6579000054999999 0.5
 T1 Si 0.954425007 0.59210000175 0.5
 T1 Si 0.954425007 0.59210000175 0.5
 T1 Si 0.7955750002499999 0.6579000054999999 0.5
 T1 Si 0.7955750002499999 0.6579000054999999 0.5
 T1 Si 0.7955750002499999 0.5 0.6579000054999999
 T1 Si 0.7955750002499999 0.5 0.6579000054999999
 T1 Si 0.954425007 0.5 0.59210000175
 T1 Si 0.954425007 0.5 0.59210000175
 T1 Si 0.954425007 0.5 0.6579000054999999
 T1 Si 0.954425007 0.5 0.6579000054999999
 T1 Si 0.7955750002499999 0.5 0.59210000175
 T1 Si 0.7955750002499999 0.5 0.59210000175
 T1 Si 0.75 0.59210000175 0.704425007
 T1 Si 0.75 0.59210000175 0.704425007
 T1 Si 0.75 0.6579000054999999 0.5455750002499999
 T1 Si 0.75 0.6579000054999999 0.5455750002499999
 T1 Si 0.75 0.59210000175 0.5455750002499999
 T1 Si 0.75 0.59210000175 0.5455750002499999
 T1 Si 0.75 0.6579000054999999 0.704425007
 T1 Si 0.75 0.6579000054999999 0.704425007
 T1 Si 0.84210000175 0.5455750002499999 0.5
 T1 Si 0.84210000175 0.5455750002499999 0.5
 T1 Si 0.9079000054999999 0.704425007 0.5
 T1 Si 0.9079000054999999 0.704425007 0.5
 T1 Si 0.84210000175 0.704425007 0.5
 T1 Si 0.84210000175 0.704425007 0.5
 T1 Si 0.9079000054999999 0.5455750002499999 0.5
 T1 Si 0.9079000054999999 0.5455750002499999 0.5
 O1 O 0.0 0.8030500002500001 0.625
 O1 O 0.0 0.8030500002500001 0.625
 O1 O 0.0 0.9469500035 0.625
 O1 O 0.0 0.9469500035 0.625
 O1 O 0.125 0.75 0.5530500002500001
 O1 O 0.125 0.75 0.5530500002500001
 O1 O 0.125 0.75 0.6969500035
 O1 O 0.125 0.75 0.6969500035
 O1 O 0.05305000025 0.875 0.5
 O1 O 0.05305000025 0.875 0.5
 O1 O 0.1969500035 0.875 0.5
 O1 O 0.1969500035 0.875 0.5
 O1 O 0.05305000025 0.75 0.625
 O1 O 0.05305000025 0.75 0.625
 O1 O 0.1969500035 0.75 0.625
 O1 O 0.1969500035 0.75 0.625
 O1 O 0.0 0.875 0.6969500035
 O1 O 0.0 0.875 0.6969500035
 O1 O 0.0 0.875 0.5530500002500001
 O1 O 0.0 0.875 0.5530500002500001
 O1 O 0.125 0.8030500002500001 0.5
 O1 O 0.125 0.8030500002500001 0.5
 O1 O 0.125 0.9469500035 0.5
 O1 O 0.125 0.9469500035 0.5
 O2 O 0.02757499925 0.7775749992500001 0.5846000015
 O2 O 0.222424999 0.972424999 0.6653999985
 O2 O 0.222424999 0.972424999 0.5846000015
 O2 O 0.02757499925 0.7775749992500001 0.6653999985
 O2 O 0.222424999 0.7775749992500001 0.6653999985
 O2 O 0.02757499925 0.972424999 0.5846000015
 O2 O 0.02757499925 0.972424999 0.6653999985
 O2 O 0.222424999 0.7775749992500001 0.5846000015
 O2 O 0.0846000015 0.7775749992500001 0.5275749992500001
 O2 O 0.1653999985 0.972424999 0.722424999
 O2 O 0.0846000015 0.972424999 0.722424999
 O2 O 0.1653999985 0.7775749992500001 0.5275749992500001
 O2 O 0.1653999985 0.972424999 0.5275749992500001
 O2 O 0.0846000015 0.7775749992500001 0.722424999
 O2 O 0.1653999985 0.7775749992500001 0.722424999
 O2 O 0.0846000015 0.972424999 0.5275749992500001
 O2 O 0.02757499925 0.8346000015 0.5275749992500001
 O2 O 0.222424999 0.9153999985 0.722424999
 O2 O 0.222424999 0.8346000015 0.722424999
 O2 O 0.02757499925 0.9153999985 0.5275749992500001
 O2 O 0.02757499925 0.9153999985 0.722424999
 O2 O 0.222424999 0.8346000015 0.5275749992500001
 O2 O 0.222424999 0.9153999985 0.5275749992500001
 O2 O 0.02757499925 0.8346000015 0.722424999
 O3 O 0.0 0.82417500025 0.57417500025
 O3 O 0.0 0.82417500025 0.57417500025
 O3 O 0.0 0.92582499975 0.67582499975
 O3 O 0.0 0.92582499975 0.67582499975
 O3 O 0.0 0.92582499975 0.57417500025
 O3 O 0.0 0.92582499975 0.57417500025
 O3 O 0.0 0.82417500025 0.67582499975
 O3 O 0.0 0.82417500025 0.67582499975
 O3 O 0.07417500025 0.75 0.57417500025
 O3 O 0.07417500025 0.75 0.57417500025
 O3 O 0.17582499975 0.75 0.67582499975
 O3 O 0.17582499975 0.75 0.67582499975
 O3 O 0.07417500025 0.75 0.67582499975
 O3 O 0.07417500025 0.75 0.67582499975
 O3 O 0.17582499975 0.75 0.57417500025
 O3 O 0.17582499975 0.75 0.57417500025
 O3 O 0.07417500025 0.82417500025 0.5
 O3 O 0.07417500025 0.82417500025 0.5
 O3 O 0.17582499975 0.92582499975 0.5
 O3 O 0.17582499975 0.92582499975 0.5
 O3 O 0.17582499975 0.82417500025 0.5
 O3 O 0.17582499975 0.82417500025 0.5
 O3 O 0.07417500025 0.92582499975 0.5
 O3 O 0.07417500025 0.92582499975 0.5
 O2 O 0.222424999 0.7775749992500001 0.5846000015
 O2 O 0.02757498625 0.7775749992500001 0.5846000015
 O2 O 0.222424999 0.972424999 0.6653999985
 O2 O 0.02757498625 0.972424999 0.6653999985
 O2 O 0.222424999 0.972424999 0.5846000015
 O2 O 0.02757498625 0.972424999 0.5846000015
 O2 O 0.222424999 0.7775749992500001 0.6653999985
 O2 O 0.02757498625 0.7775749992500001 0.6653999985
 O2 O 0.0846000015 0.972424999 0.5275749992500001
 O2 O 0.0846000015 0.77757498625 0.5275749992500001
 O2 O 0.1653999985 0.972424999 0.722424999
 O2 O 0.1653999985 0.77757498625 0.722424999
 O2 O 0.0846000015 0.972424999 0.722424999
 O2 O 0.0846000015 0.77757498625 0.722424999
 O2 O 0.1653999985 0.972424999 0.5275749992500001
 O2 O 0.1653999985 0.77757498625 0.5275749992500001
 O2 O 0.02757499925 0.8346000015 0.722424999
 O2 O 0.02757499925 0.8346000015 0.52757498625
 O2 O 0.222424999 0.9153999985 0.722424999
 O2 O 0.222424999 0.9153999985 0.52757498625
 O2 O 0.222424999 0.8346000015 0.722424999
 O2 O 0.222424999 0.8346000015 0.52757498625
 O2 O 0.02757499925 0.9153999985 0.722424999
 O2 O 0.02757499925 0.9153999985 0.52757498625
 O2 O 0.02757499925 0.972424999 0.6653999985
 O2 O 0.02757499925 0.77757498625 0.6653999985
 O2 O 0.222424999 0.972424999 0.5846000015
 O2 O 0.222424999 0.77757498625 0.5846000015
 O2 O 0.222424999 0.972424999 0.6653999985
 O2 O 0.222424999 0.77757498625 0.6653999985
 O2 O 0.02757499925 0.972424999 0.5846000015
 O2 O 0.02757499925 0.77757498625 0.5846000015
 O2 O 0.222424999 0.8346000015 0.722424999
 O2 O 0.02757498625 0.8346000015 0.722424999
 O2 O 0.222424999 0.9153999985 0.5275749992500001
 O2 O 0.02757498625 0.9153999985 0.5275749992500001
 O2 O 0.222424999 0.8346000015 0.5275749992500001
 O2 O 0.02757498625 0.8346000015 0.5275749992500001
 O2 O 0.222424999 0.9153999985 0.722424999
 O2 O 0.02757498625 0.9153999985 0.722424999
 O2 O 0.0846000015 0.7775749992500001 0.722424999
 O2 O 0.0846000015 0.7775749992500001 0.52757498625
 O2 O 0.1653999985 0.972424999 0.722424999
 O2 O 0.1653999985 0.972424999 0.52757498625
 O2 O 0.0846000015 0.972424999 0.722424999
 O2 O 0.0846000015 0.972424999 0.52757498625
 O2 O 0.1653999985 0.7775749992500001 0.722424999
 O2 O 0.1653999985 0.7775749992500001 0.52757498625
 T1 Si 0.0 0.7955750002499999 0.59210000175
 T1 Si 0.0 0.7955750002499999 0.59210000175
 T1 Si 0.0 0.954425007 0.6579000054999999
 T1 Si 0.0 0.954425007 0.6579000054999999
 T1 Si 0.0 0.954425007 0.59210000175
 T1 Si 0.0 0.954425007 0.59210000175
 T1 Si 0.0 0.7955750002499999 0.6579000054999999
 T1 Si 0.0 0.7955750002499999 0.6579000054999999
 T1 Si 0.09210000175 0.75 0.5455750002499999
 T1 Si 0.09210000175 0.75 0.5455750002499999
 T1 Si 0.1579000055 0.75 0.704425007
 T1 Si 0.1579000055 0.75 0.704425007
 T1 Si 0.09210000175 0.75 0.704425007
 T1 Si 0.09210000175 0.75 0.704425007
 T1 Si 0.1579000055 0.75 0.5455750002499999
 T1 Si 0.1579000055 0.75 0.5455750002499999
 T1 Si 0.04557500025 0.84210000175 0.5
 T1 Si 0.04557500025 0.84210000175 0.5
 T1 Si 0.204425007 0.9079000054999999 0.5
 T1 Si 0.204425007 0.9079000054999999 0.5
 T1 Si 0.204425007 0.84210000175 0.5
 T1 Si 0.204425007 0.84210000175 0.5
 T1 Si 0.04557500025 0.9079000054999999 0.5
 T1 Si 0.04557500025 0.9079000054999999 0.5
 T1 Si 0.04557500025 0.75 0.6579000054999999
 T1 Si 0.04557500025 0.75 0.6579000054999999
 T1 Si 0.204425007 0.75 0.59210000175
 T1 Si 0.204425007 0.75 0.59210000175
 T1 Si 0.204425007 0.75 0.6579000054999999
 T1 Si 0.204425007 0.75 0.6579000054999999
 T1 Si 0.04557500025 0.75 0.59210000175
 T1 Si 0.04557500025 0.75 0.59210000175
 T1 Si 0.0 0.84210000175 0.704425007
 T1 Si 0.0 0.84210000175 0.704425007
 T1 Si 0.0 0.9079000054999999 0.5455750002499999
 T1 Si 0.0 0.9079000054999999 0.5455750002499999
 T1 Si 0.0 0.84210000175 0.5455750002499999
 T1 Si 0.0 0.84210000175 0.5455750002499999
 T1 Si 0.0 0.9079000054999999 0.704425007
 T1 Si 0.0 0.9079000054999999 0.704425007
 T1 Si 0.09210000175 0.7955750002499999 0.5
 T1 Si 0.09210000175 0.7955750002499999 0.5
 T1 Si 0.1579000055 0.954425007 0.5
 T1 Si 0.1579000055 0.954425007 0.5
 T1 Si 0.09210000175 0.954425007 0.5
 T1 Si 0.09210000175 0.954425007 0.5
 T1 Si 0.1579000055 0.7955750002499999 0.5
 T1 Si 0.1579000055 0.7955750002499999 0.5
 O1 O 0.25 0.8030500002500001 0.625
 O1 O 0.25 0.8030500002500001 0.625
 O1 O 0.25 0.9469500035 0.625
 O1 O 0.25 0.9469500035 0.625
 O1 O 0.375 0.75 0.5530500002500001
 O1 O 0.375 0.75 0.5530500002500001
 O1 O 0.375 0.75 0.6969500035
 O1 O 0.375 0.75 0.6969500035
 O1 O 0.30305000025 0.875 0.5
 O1 O 0.30305000025 0.875 0.5
 O1 O 0.4469500035 0.875 0.5
 O1 O 0.4469500035 0.875 0.5
 O1 O 0.30305000025 0.75 0.625
 O1 O 0.30305000025 0.75 0.625
 O1 O 0.4469500035 0.75 0.625
 O1 O 0.4469500035 0.75 0.625
 O1 O 0.25 0.875 0.6969500035
 O1 O 0.25 0.875 0.6969500035
 O1 O 0.25 0.875 0.5530500002500001
 O1 O 0.25 0.875 0.5530500002500001
 O1 O 0.375 0.8030500002500001 0.5
 O1 O 0.375 0.8030500002500001 0.5
 O1 O 0.375 0.9469500035 0.5
 O1 O 0.375 0.9469500035 0.5
 O2 O 0.27757499925 0.7775749992500001 0.5846000015
 O2 O 0.472424999 0.972424999 0.6653999985
 O2 O 0.472424999 0.972424999 0.5846000015
 O2 O 0.27757499925 0.7775749992500001 0.6653999985
 O2 O 0.472424999 0.7775749992500001 0.6653999985
 O2 O 0.27757499925 0.972424999 0.5846000015
 O2 O 0.27757499925 0.972424999 0.6653999985
 O2 O 0.472424999 0.7775749992500001 0.5846000015
 O2 O 0.3346000015 0.7775749992500001 0.5275749992500001
 O2 O 0.4153999985 0.972424999 0.722424999
 O2 O 0.3346000015 0.972424999 0.722424999
 O2 O 0.4153999985 0.7775749992500001 0.5275749992500001
 O2 O 0.4153999985 0.972424999 0.5275749992500001
 O2 O 0.3346000015 0.7775749992500001 0.722424999
 O2 O 0.4153999985 0.7775749992500001 0.722424999
 O2 O 0.3346000015 0.972424999 0.5275749992500001
 O2 O 0.27757499925 0.8346000015 0.5275749992500001
 O2 O 0.472424999 0.9153999985 0.722424999
 O2 O 0.472424999 0.8346000015 0.722424999
 O2 O 0.27757499925 0.9153999985 0.5275749992500001
 O2 O 0.27757499925 0.9153999985 0.722424999
 O2 O 0.472424999 0.8346000015 0.5275749992500001
 O2 O 0.472424999 0.9153999985 0.5275749992500001
 O2 O 0.27757499925 0.8346000015 0.722424999
 O3 O 0.25 0.82417500025 0.57417500025
 O3 O 0.25 0.82417500025 0.57417500025
 O3 O 0.25 0.92582499975 0.67582499975
 O3 O 0.25 0.92582499975 0.67582499975
 O3 O 0.25 0.92582499975 0.57417500025
 O3 O 0.25 0.92582499975 0.57417500025
 O3 O 0.25 0.82417500025 0.67582499975
 O3 O 0.25 0.82417500025 0.67582499975
 O3 O 0.32417500025 0.75 0.57417500025
 O3 O 0.32417500025 0.75 0.57417500025
 O3 O 0.42582499975 0.75 0.67582499975
 O3 O 0.42582499975 0.75 0.67582499975
 O3 O 0.32417500025 0.75 0.67582499975
 O3 O 0.32417500025 0.75 0.67582499975
 O3 O 0.42582499975 0.75 0.57417500025
 O3 O 0.42582499975 0.75 0.57417500025
 O3 O 0.32417500025 0.82417500025 0.5
 O3 O 0.32417500025 0.82417500025 0.5
 O3 O 0.42582499975 0.92582499975 0.5
 O3 O 0.42582499975 0.92582499975 0.5
 O3 O 0.42582499975 0.82417500025 0.5
 O3 O 0.42582499975 0.82417500025 0.5
 O3 O 0.32417500025 0.92582499975 0.5
 O3 O 0.32417500025 0.92582499975 0.5
 O2 O 0.472424999 0.7775749992500001 0.5846000015
 O2 O 0.27757498625 0.7775749992500001 0.5846000015
 O2 O 0.472424999 0.972424999 0.6653999985
 O2 O 0.27757498625 0.972424999 0.6653999985
 O2 O 0.472424999 0.972424999 0.5846000015
 O2 O 0.27757498625 0.972424999 0.5846000015
 O2 O 0.472424999 0.7775749992500001 0.6653999985
 O2 O 0.27757498625 0.7775749992500001 0.6653999985
 O2 O 0.3346000015 0.972424999 0.5275749992500001
 O2 O 0.3346000015 0.77757498625 0.5275749992500001
 O2 O 0.4153999985 0.972424999 0.722424999
 O2 O 0.4153999985 0.77757498625 0.722424999
 O2 O 0.3346000015 0.972424999 0.722424999
 O2 O 0.3346000015 0.77757498625 0.722424999
 O2 O 0.4153999985 0.972424999 0.5275749992500001
 O2 O 0.4153999985 0.77757498625 0.5275749992500001
 O2 O 0.27757499925 0.8346000015 0.722424999
 O2 O 0.27757499925 0.8346000015 0.52757498625
 O2 O 0.472424999 0.9153999985 0.722424999
 O2 O 0.472424999 0.9153999985 0.52757498625
 O2 O 0.472424999 0.8346000015 0.722424999
 O2 O 0.472424999 0.8346000015 0.52757498625
 O2 O 0.27757499925 0.9153999985 0.722424999
 O2 O 0.27757499925 0.9153999985 0.52757498625
 O2 O 0.27757499925 0.972424999 0.6653999985
 O2 O 0.27757499925 0.77757498625 0.6653999985
 O2 O 0.472424999 0.972424999 0.5846000015
 O2 O 0.472424999 0.77757498625 0.5846000015
 O2 O 0.472424999 0.972424999 0.6653999985
 O2 O 0.472424999 0.77757498625 0.6653999985
 O2 O 0.27757499925 0.972424999 0.5846000015
 O2 O 0.27757499925 0.77757498625 0.5846000015
 O2 O 0.472424999 0.8346000015 0.722424999
 O2 O 0.27757498625 0.8346000015 0.722424999
 O2 O 0.472424999 0.9153999985 0.5275749992500001
 O2 O 0.27757498625 0.9153999985 0.5275749992500001
 O2 O 0.472424999 0.8346000015 0.5275749992500001
 O2 O 0.27757498625 0.8346000015 0.5275749992500001
 O2 O 0.472424999 0.9153999985 0.722424999
 O2 O 0.27757498625 0.9153999985 0.722424999
 O2 O 0.3346000015 0.7775749992500001 0.722424999
 O2 O 0.3346000015 0.7775749992500001 0.52757498625
 O2 O 0.4153999985 0.972424999 0.722424999
 O2 O 0.4153999985 0.972424999 0.52757498625
 O2 O 0.3346000015 0.972424999 0.722424999
 O2 O 0.3346000015 0.972424999 0.52757498625
 O2 O 0.4153999985 0.7775749992500001 0.722424999
 O2 O 0.4153999985 0.7775749992500001 0.52757498625
 T1 Si 0.25 0.7955750002499999 0.59210000175
 T1 Si 0.25 0.7955750002499999 0.59210000175
 T1 Si 0.25 0.954425007 0.6579000054999999
 T1 Si 0.25 0.954425007 0.6579000054999999
 T1 Si 0.25 0.954425007 0.59210000175
 T1 Si 0.25 0.954425007 0.59210000175
 T1 Si 0.25 0.7955750002499999 0.6579000054999999
 T1 Si 0.25 0.7955750002499999 0.6579000054999999
 T1 Si 0.34210000175 0.75 0.5455750002499999
 T1 Si 0.34210000175 0.75 0.5455750002499999
 T1 Si 0.4079000055 0.75 0.704425007
 T1 Si 0.4079000055 0.75 0.704425007
 T1 Si 0.34210000175 0.75 0.704425007
 T1 Si 0.34210000175 0.75 0.704425007
 T1 Si 0.4079000055 0.75 0.5455750002499999
 T1 Si 0.4079000055 0.75 0.5455750002499999
 T1 Si 0.29557500025 0.84210000175 0.5
 T1 Si 0.29557500025 0.84210000175 0.5
 T1 Si 0.454425007 0.9079000054999999 0.5
 T1 Si 0.454425007 0.9079000054999999 0.5
 T1 Si 0.454425007 0.84210000175 0.5
 T1 Si 0.454425007 0.84210000175 0.5
 T1 Si 0.29557500025 0.9079000054999999 0.5
 T1 Si 0.29557500025 0.9079000054999999 0.5
 T1 Si 0.29557500025 0.75 0.6579000054999999
 T1 Si 0.29557500025 0.75 0.6579000054999999
 T1 Si 0.454425007 0.75 0.59210000175
 T1 Si 0.454425007 0.75 0.59210000175
 T1 Si 0.454425007 0.75 0.6579000054999999
 T1 Si 0.454425007 0.75 0.6579000054999999
 T1 Si 0.29557500025 0.75 0.59210000175
 T1 Si 0.29557500025 0.75 0.59210000175
 T1 Si 0.25 0.84210000175 0.704425007
 T1 Si 0.25 0.84210000175 0.704425007
 T1 Si 0.25 0.9079000054999999 0.5455750002499999
 T1 Si 0.25 0.9079000054999999 0.5455750002499999
 T1 Si 0.25 0.84210000175 0.5455750002499999
 T1 Si 0.25 0.84210000175 0.5455750002499999
 T1 Si 0.25 0.9079000054999999 0.704425007
 T1 Si 0.25 0.9079000054999999 0.704425007
 T1 Si 0.34210000175 0.7955750002499999 0.5
 T1 Si 0.34210000175 0.7955750002499999 0.5
 T1 Si 0.4079000055 0.954425007 0.5
 T1 Si 0.4079000055 0.954425007 0.5
 T1 Si 0.34210000175 0.954425007 0.5
 T1 Si 0.34210000175 0.954425007 0.5
 T1 Si 0.4079000055 0.7955750002499999 0.5
 T1 Si 0.4079000055 0.7955750002499999 0.5
 O1 O 0.5 0.8030500002500001 0.625
 O1 O 0.5 0.8030500002500001 0.625
 O1 O 0.5 0.9469500035 0.625
 O1 O 0.5 0.9469500035 0.625
 O1 O 0.625 0.75 0.5530500002500001
 O1 O 0.625 0.75 0.5530500002500001
 O1 O 0.625 0.75 0.6969500035
 O1 O 0.625 0.75 0.6969500035
 O1 O 0.5530500002500001 0.875 0.5
 O1 O 0.5530500002500001 0.875 0.5
 O1 O 0.6969500035 0.875 0.5
 O1 O 0.6969500035 0.875 0.5
 O1 O 0.5530500002500001 0.75 0.625
 O1 O 0.5530500002500001 0.75 0.625
 O1 O 0.6969500035 0.75 0.625
 O1 O 0.6969500035 0.75 0.625
 O1 O 0.5 0.875 0.6969500035
 O1 O 0.5 0.875 0.6969500035
 O1 O 0.5 0.875 0.5530500002500001
 O1 O 0.5 0.875 0.5530500002500001
 O1 O 0.625 0.8030500002500001 0.5
 O1 O 0.625 0.8030500002500001 0.5
 O1 O 0.625 0.9469500035 0.5
 O1 O 0.625 0.9469500035 0.5
 O2 O 0.5275749992500001 0.7775749992500001 0.5846000015
 O2 O 0.722424999 0.972424999 0.6653999985
 O2 O 0.722424999 0.972424999 0.5846000015
 O2 O 0.5275749992500001 0.7775749992500001 0.6653999985
 O2 O 0.722424999 0.7775749992500001 0.6653999985
 O2 O 0.5275749992500001 0.972424999 0.5846000015
 O2 O 0.5275749992500001 0.972424999 0.6653999985
 O2 O 0.722424999 0.7775749992500001 0.5846000015
 O2 O 0.5846000015 0.7775749992500001 0.5275749992500001
 O2 O 0.6653999985 0.972424999 0.722424999
 O2 O 0.5846000015 0.972424999 0.722424999
 O2 O 0.6653999985 0.7775749992500001 0.5275749992500001
 O2 O 0.6653999985 0.972424999 0.5275749992500001
 O2 O 0.5846000015 0.7775749992500001 0.722424999
 O2 O 0.6653999985 0.7775749992500001 0.722424999
 O2 O 0.5846000015 0.972424999 0.5275749992500001
 O2 O 0.5275749992500001 0.8346000015 0.5275749992500001
 O2 O 0.722424999 0.9153999985 0.722424999
 O2 O 0.722424999 0.8346000015 0.722424999
 O2 O 0.5275749992500001 0.9153999985 0.5275749992500001
 O2 O 0.5275749992500001 0.9153999985 0.722424999
 O2 O 0.722424999 0.8346000015 0.5275749992500001
 O2 O 0.722424999 0.9153999985 0.5275749992500001
 O2 O 0.5275749992500001 0.8346000015 0.722424999
 O3 O 0.5 0.82417500025 0.57417500025
 O3 O 0.5 0.82417500025 0.57417500025
 O3 O 0.5 0.92582499975 0.67582499975
 O3 O 0.5 0.92582499975 0.67582499975
 O3 O 0.5 0.92582499975 0.57417500025
 O3 O 0.5 0.92582499975 0.57417500025
 O3 O 0.5 0.82417500025 0.67582499975
 O3 O 0.5 0.82417500025 0.67582499975
 O3 O 0.57417500025 0.75 0.57417500025
 O3 O 0.57417500025 0.75 0.57417500025
 O3 O 0.67582499975 0.75 0.67582499975
 O3 O 0.67582499975 0.75 0.67582499975
 O3 O 0.57417500025 0.75 0.67582499975
 O3 O 0.57417500025 0.75 0.67582499975
 O3 O 0.67582499975 0.75 0.57417500025
 O3 O 0.67582499975 0.75 0.57417500025
 O3 O 0.57417500025 0.82417500025 0.5
 O3 O 0.57417500025 0.82417500025 0.5
 O3 O 0.67582499975 0.92582499975 0.5
 O3 O 0.67582499975 0.92582499975 0.5
 O3 O 0.67582499975 0.82417500025 0.5
 O3 O 0.67582499975 0.82417500025 0.5
 O3 O 0.57417500025 0.92582499975 0.5
 O3 O 0.57417500025 0.92582499975 0.5
 O2 O 0.722424999 0.7775749992500001 0.5846000015
 O2 O 0.52757498625 0.7775749992500001 0.5846000015
 O2 O 0.722424999 0.972424999 0.6653999985
 O2 O 0.52757498625 0.972424999 0.6653999985
 O2 O 0.722424999 0.972424999 0.5846000015
 O2 O 0.52757498625 0.972424999 0.5846000015
 O2 O 0.722424999 0.7775749992500001 0.6653999985
 O2 O 0.52757498625 0.7775749992500001 0.6653999985
 O2 O 0.5846000015 0.972424999 0.5275749992500001
 O2 O 0.5846000015 0.77757498625 0.5275749992500001
 O2 O 0.6653999985 0.972424999 0.722424999
 O2 O 0.6653999985 0.77757498625 0.722424999
 O2 O 0.5846000015 0.972424999 0.722424999
 O2 O 0.5846000015 0.77757498625 0.722424999
 O2 O 0.6653999985 0.972424999 0.5275749992500001
 O2 O 0.6653999985 0.77757498625 0.5275749992500001
 O2 O 0.5275749992500001 0.8346000015 0.722424999
 O2 O 0.5275749992500001 0.8346000015 0.52757498625
 O2 O 0.722424999 0.9153999985 0.722424999
 O2 O 0.722424999 0.9153999985 0.52757498625
 O2 O 0.722424999 0.8346000015 0.722424999
 O2 O 0.722424999 0.8346000015 0.52757498625
 O2 O 0.5275749992500001 0.9153999985 0.722424999
 O2 O 0.5275749992500001 0.9153999985 0.52757498625
 O2 O 0.5275749992500001 0.972424999 0.6653999985
 O2 O 0.5275749992500001 0.77757498625 0.6653999985
 O2 O 0.722424999 0.972424999 0.5846000015
 O2 O 0.722424999 0.77757498625 0.5846000015
 O2 O 0.722424999 0.972424999 0.6653999985
 O2 O 0.722424999 0.77757498625 0.6653999985
 O2 O 0.5275749992500001 0.972424999 0.5846000015
 O2 O 0.5275749992500001 0.77757498625 0.5846000015
 O2 O 0.722424999 0.8346000015 0.722424999
 O2 O 0.52757498625 0.8346000015 0.722424999
 O2 O 0.722424999 0.9153999985 0.5275749992500001
 O2 O 0.52757498625 0.9153999985 0.5275749992500001
 O2 O 0.722424999 0.8346000015 0.5275749992500001
 O2 O 0.52757498625 0.8346000015 0.5275749992500001
 O2 O 0.722424999 0.9153999985 0.722424999
 O2 O 0.52757498625 0.9153999985 0.722424999
 O2 O 0.5846000015 0.7775749992500001 0.722424999
 O2 O 0.5846000015 0.7775749992500001 0.52757498625
 O2 O 0.6653999985 0.972424999 0.722424999
 O2 O 0.6653999985 0.972424999 0.52757498625
 O2 O 0.5846000015 0.972424999 0.722424999
 O2 O 0.5846000015 0.972424999 0.52757498625
 O2 O 0.6653999985 0.7775749992500001 0.722424999
 O2 O 0.6653999985 0.7775749992500001 0.52757498625
 T1 Si 0.5 0.7955750002499999 0.59210000175
 T1 Si 0.5 0.7955750002499999 0.59210000175
 T1 Si 0.5 0.954425007 0.6579000054999999
 T1 Si 0.5 0.954425007 0.6579000054999999
 T1 Si 0.5 0.954425007 0.59210000175
 T1 Si 0.5 0.954425007 0.59210000175
 T1 Si 0.5 0.7955750002499999 0.6579000054999999
 T1 Si 0.5 0.7955750002499999 0.6579000054999999
 T1 Si 0.59210000175 0.75 0.5455750002499999
 T1 Si 0.59210000175 0.75 0.5455750002499999
 T1 Si 0.6579000054999999 0.75 0.704425007
 T1 Si 0.6579000054999999 0.75 0.704425007
 T1 Si 0.59210000175 0.75 0.704425007
 T1 Si 0.59210000175 0.75 0.704425007
 T1 Si 0.6579000054999999 0.75 0.5455750002499999
 T1 Si 0.6579000054999999 0.75 0.5455750002499999
 T1 Si 0.5455750002499999 0.84210000175 0.5
 T1 Si 0.5455750002499999 0.84210000175 0.5
 T1 Si 0.704425007 0.9079000054999999 0.5
 T1 Si 0.704425007 0.9079000054999999 0.5
 T1 Si 0.704425007 0.84210000175 0.5
 T1 Si 0.704425007 0.84210000175 0.5
 T1 Si 0.5455750002499999 0.9079000054999999 0.5
 T1 Si 0.5455750002499999 0.9079000054999999 0.5
 T1 Si 0.5455750002499999 0.75 0.6579000054999999
 T1 Si 0.5455750002499999 0.75 0.6579000054999999
 T1 Si 0.704425007 0.75 0.59210000175
 T1 Si 0.704425007 0.75 0.59210000175
 T1 Si 0.704425007 0.75 0.6579000054999999
 T1 Si 0.704425007 0.75 0.6579000054999999
 T1 Si 0.5455750002499999 0.75 0.59210000175
 T1 Si 0.5455750002499999 0.75 0.59210000175
 T1 Si 0.5 0.84210000175 0.704425007
 T1 Si 0.5 0.84210000175 0.704425007
 T1 Si 0.5 0.9079000054999999 0.5455750002499999
 T1 Si 0.5 0.9079000054999999 0.5455750002499999
 T1 Si 0.5 0.84210000175 0.5455750002499999
 T1 Si 0.5 0.84210000175 0.5455750002499999
 T1 Si 0.5 0.9079000054999999 0.704425007
 T1 Si 0.5 0.9079000054999999 0.704425007
 T1 Si 0.59210000175 0.7955750002499999 0.5
 T1 Si 0.59210000175 0.7955750002499999 0.5
 T1 Si 0.6579000054999999 0.954425007 0.5
 T1 Si 0.6579000054999999 0.954425007 0.5
 T1 Si 0.59210000175 0.954425007 0.5
 T1 Si 0.59210000175 0.954425007 0.5
 T1 Si 0.6579000054999999 0.7955750002499999 0.5
 T1 Si 0.6579000054999999 0.7955750002499999 0.5
 O1 O 0.75 0.8030500002500001 0.625
 O1 O 0.75 0.8030500002500001 0.625
 O1 O 0.75 0.9469500035 0.625
 O1 O 0.75 0.9469500035 0.625
 O1 O 0.875 0.75 0.5530500002500001
 O1 O 0.875 0.75 0.5530500002500001
 O1 O 0.875 0.75 0.6969500035
 O1 O 0.875 0.75 0.6969500035
 O1 O 0.8030500002500001 0.875 0.5
 O1 O 0.8030500002500001 0.875 0.5
 O1 O 0.9469500035 0.875 0.5
 O1 O 0.9469500035 0.875 0.5
 O1 O 0.8030500002500001 0.75 0.625
 O1 O 0.8030500002500001 0.75 0.625
 O1 O 0.9469500035 0.75 0.625
 O1 O 0.9469500035 0.75 0.625
 O1 O 0.75 0.875 0.6969500035
 O1 O 0.75 0.875 0.6969500035
 O1 O 0.75 0.875 0.5530500002500001
 O1 O 0.75 0.875 0.5530500002500001
 O1 O 0.875 0.8030500002500001 0.5
 O1 O 0.875 0.8030500002500001 0.5
 O1 O 0.875 0.9469500035 0.5
 O1 O 0.875 0.9469500035 0.5
 O2 O 0.7775749992500001 0.7775749992500001 0.5846000015
 O2 O 0.972424999 0.972424999 0.6653999985
 O2 O 0.972424999 0.972424999 0.5846000015
 O2 O 0.7775749992500001 0.7775749992500001 0.6653999985
 O2 O 0.972424999 0.7775749992500001 0.6653999985
 O2 O 0.7775749992500001 0.972424999 0.5846000015
 O2 O 0.7775749992500001 0.972424999 0.6653999985
 O2 O 0.972424999 0.7775749992500001 0.5846000015
 O2 O 0.8346000015 0.7775749992500001 0.5275749992500001
 O2 O 0.9153999985 0.972424999 0.722424999
 O2 O 0.8346000015 0.972424999 0.722424999
 O2 O 0.9153999985 0.7775749992500001 0.5275749992500001
 O2 O 0.9153999985 0.972424999 0.5275749992500001
 O2 O 0.8346000015 0.7775749992500001 0.722424999
 O2 O 0.9153999985 0.7775749992500001 0.722424999
 O2 O 0.8346000015 0.972424999 0.5275749992500001
 O2 O 0.7775749992500001 0.8346000015 0.5275749992500001
 O2 O 0.972424999 0.9153999985 0.722424999
 O2 O 0.972424999 0.8346000015 0.722424999
 O2 O 0.7775749992500001 0.9153999985 0.5275749992500001
 O2 O 0.7775749992500001 0.9153999985 0.722424999
 O2 O 0.972424999 0.8346000015 0.5275749992500001
 O2 O 0.972424999 0.9153999985 0.5275749992500001
 O2 O 0.7775749992500001 0.8346000015 0.722424999
 O3 O 0.75 0.82417500025 0.57417500025
 O3 O 0.75 0.82417500025 0.57417500025
 O3 O 0.75 0.92582499975 0.67582499975
 O3 O 0.75 0.92582499975 0.67582499975
 O3 O 0.75 0.92582499975 0.57417500025
 O3 O 0.75 0.92582499975 0.57417500025
 O3 O 0.75 0.82417500025 0.67582499975
 O3 O 0.75 0.82417500025 0.67582499975
 O3 O 0.82417500025 0.75 0.57417500025
 O3 O 0.82417500025 0.75 0.57417500025
 O3 O 0.92582499975 0.75 0.67582499975
 O3 O 0.92582499975 0.75 0.67582499975
 O3 O 0.82417500025 0.75 0.67582499975
 O3 O 0.82417500025 0.75 0.67582499975
 O3 O 0.92582499975 0.75 0.57417500025
 O3 O 0.92582499975 0.75 0.57417500025
 O3 O 0.82417500025 0.82417500025 0.5
 O3 O 0.82417500025 0.82417500025 0.5
 O3 O 0.92582499975 0.92582499975 0.5
 O3 O 0.92582499975 0.92582499975 0.5
 O3 O 0.92582499975 0.82417500025 0.5
 O3 O 0.92582499975 0.82417500025 0.5
 O3 O 0.82417500025 0.92582499975 0.5
 O3 O 0.82417500025 0.92582499975 0.5
 O2 O 0.972424999 0.7775749992500001 0.5846000015
 O2 O 0.77757498625 0.7775749992500001 0.5846000015
 O2 O 0.972424999 0.972424999 0.6653999985
 O2 O 0.77757498625 0.972424999 0.6653999985
 O2 O 0.972424999 0.972424999 0.5846000015
 O2 O 0.77757498625 0.972424999 0.5846000015
 O2 O 0.972424999 0.7775749992500001 0.6653999985
 O2 O 0.77757498625 0.7775749992500001 0.6653999985
 O2 O 0.8346000015 0.972424999 0.5275749992500001
 O2 O 0.8346000015 0.77757498625 0.5275749992500001
 O2 O 0.9153999985 0.972424999 0.722424999
 O2 O 0.9153999985 0.77757498625 0.722424999
 O2 O 0.8346000015 0.972424999 0.722424999
 O2 O 0.8346000015 0.77757498625 0.722424999
 O2 O 0.9153999985 0.972424999 0.5275749992500001
 O2 O 0.9153999985 0.77757498625 0.5275749992500001
 O2 O 0.7775749992500001 0.8346000015 0.722424999
 O2 O 0.7775749992500001 0.8346000015 0.52757498625
 O2 O 0.972424999 0.9153999985 0.722424999
 O2 O 0.972424999 0.9153999985 0.52757498625
 O2 O 0.972424999 0.8346000015 0.722424999
 O2 O 0.972424999 0.8346000015 0.52757498625
 O2 O 0.7775749992500001 0.9153999985 0.722424999
 O2 O 0.7775749992500001 0.9153999985 0.52757498625
 O2 O 0.7775749992500001 0.972424999 0.6653999985
 O2 O 0.7775749992500001 0.77757498625 0.6653999985
 O2 O 0.972424999 0.972424999 0.5846000015
 O2 O 0.972424999 0.77757498625 0.5846000015
 O2 O 0.972424999 0.972424999 0.6653999985
 O2 O 0.972424999 0.77757498625 0.6653999985
 O2 O 0.7775749992500001 0.972424999 0.5846000015
 O2 O 0.7775749992500001 0.77757498625 0.5846000015
 O2 O 0.972424999 0.8346000015 0.722424999
 O2 O 0.77757498625 0.8346000015 0.722424999
 O2 O 0.972424999 0.9153999985 0.5275749992500001
 O2 O 0.77757498625 0.9153999985 0.5275749992500001
 O2 O 0.972424999 0.8346000015 0.5275749992500001
 O2 O 0.77757498625 0.8346000015 0.5275749992500001
 O2 O 0.972424999 0.9153999985 0.722424999
 O2 O 0.77757498625 0.9153999985 0.722424999
 O2 O 0.8346000015 0.7775749992500001 0.722424999
 O2 O 0.8346000015 0.7775749992500001 0.52757498625
 O2 O 0.9153999985 0.972424999 0.722424999
 O2 O 0.9153999985 0.972424999 0.52757498625
 O2 O 0.8346000015 0.972424999 0.722424999
 O2 O 0.8346000015 0.972424999 0.52757498625
 O2 O 0.9153999985 0.7775749992500001 0.722424999
 O2 O 0.9153999985 0.7775749992500001 0.52757498625
 T1 Si 0.75 0.7955750002499999 0.59210000175
 T1 Si 0.75 0.7955750002499999 0.59210000175
 T1 Si 0.75 0.954425007 0.6579000054999999
 T1 Si 0.75 0.954425007 0.6579000054999999
 T1 Si 0.75 0.954425007 0.59210000175
 T1 Si 0.75 0.954425007 0.59210000175
 T1 Si 0.75 0.7955750002499999 0.6579000054999999
 T1 Si 0.75 0.7955750002499999 0.6579000054999999
 T1 Si 0.84210000175 0.75 0.5455750002499999
 T1 Si 0.84210000175 0.75 0.5455750002499999
 T1 Si 0.9079000054999999 0.75 0.704425007
 T1 Si 0.9079000054999999 0.75 0.704425007
 T1 Si 0.84210000175 0.75 0.704425007
 T1 Si 0.84210000175 0.75 0.704425007
 T1 Si 0.9079000054999999 0.75 0.5455750002499999
 T1 Si 0.9079000054999999 0.75 0.5455750002499999
 T1 Si 0.7955750002499999 0.84210000175 0.5
 T1 Si 0.7955750002499999 0.84210000175 0.5
 T1 Si 0.954425007 0.9079000054999999 0.5
 T1 Si 0.954425007 0.9079000054999999 0.5
 T1 Si 0.954425007 0.84210000175 0.5
 T1 Si 0.954425007 0.84210000175 0.5
 T1 Si 0.7955750002499999 0.9079000054999999 0.5
 T1 Si 0.7955750002499999 0.9079000054999999 0.5
 T1 Si 0.7955750002499999 0.75 0.6579000054999999
 T1 Si 0.7955750002499999 0.75 0.6579000054999999
 T1 Si 0.954425007 0.75 0.59210000175
 T1 Si 0.954425007 0.75 0.59210000175
 T1 Si 0.954425007 0.75 0.6579000054999999
 T1 Si 0.954425007 0.75 0.6579000054999999
 T1 Si 0.7955750002499999 0.75 0.59210000175
 T1 Si 0.7955750002499999 0.75 0.59210000175
 T1 Si 0.75 0.84210000175 0.704425007
 T1 Si 0.75 0.84210000175 0.704425007
 T1 Si 0.75 0.9079000054999999 0.5455750002499999
 T1 Si 0.75 0.9079000054999999 0.5455750002499999
 T1 Si 0.75 0.84210000175 0.5455750002499999
 T1 Si 0.75 0.84210000175 0.5455750002499999
 T1 Si 0.75 0.9079000054999999 0.704425007
 T1 Si 0.75 0.9079000054999999 0.704425007
 T1 Si 0.84210000175 0.7955750002499999 0.5
 T1 Si 0.84210000175 0.7955750002499999 0.5
 T1 Si 0.9079000054999999 0.954425007 0.5
 T1 Si 0.9079000054999999 0.954425007 0.5
 T1 Si 0.84210000175 0.954425007 0.5
 T1 Si 0.84210000175 0.954425007 0.5
 T1 Si 0.9079000054999999 0.7955750002499999 0.5
 T1 Si 0.9079000054999999 0.7955750002499999 0.5
 O1 O 0.0 0.05305000025 0.875
 O1 O 0.0 0.05305000025 0.875
 O1 O 0.0 0.1969500035 0.875
 O1 O 0.0 0.1969500035 0.875
 O1 O 0.125 0.0 0.8030500002500001
 O1 O 0.125 0.0 0.8030500002500001
 O1 O 0.125 0.0 0.9469500035
 O1 O 0.125 0.0 0.9469500035
 O1 O 0.05305000025 0.125 0.75
 O1 O 0.05305000025 0.125 0.75
 O1 O 0.1969500035 0.125 0.75
 O1 O 0.1969500035 0.125 0.75
 O1 O 0.05305000025 0.0 0.875
 O1 O 0.05305000025 0.0 0.875
 O1 O 0.1969500035 0.0 0.875
 O1 O 0.1969500035 0.0 0.875
 O1 O 0.0 0.125 0.9469500035
 O1 O 0.0 0.125 0.9469500035
 O1 O 0.0 0.125 0.8030500002500001
 O1 O 0.0 0.125 0.8030500002500001
 O1 O 0.125 0.05305000025 0.75
 O1 O 0.125 0.05305000025 0.75
 O1 O 0.125 0.1969500035 0.75
 O1 O 0.125 0.1969500035 0.75
 O2 O 0.02757499925 0.02757499925 0.8346000015
 O2 O 0.222424999 0.222424999 0.9153999985
 O2 O 0.222424999 0.222424999 0.8346000015
 O2 O 0.02757499925 0.02757499925 0.9153999985
 O2 O 0.222424999 0.02757499925 0.9153999985
 O2 O 0.02757499925 0.222424999 0.8346000015
 O2 O 0.02757499925 0.222424999 0.9153999985
 O2 O 0.222424999 0.02757499925 0.8346000015
 O2 O 0.0846000015 0.02757499925 0.7775749992500001
 O2 O 0.1653999985 0.222424999 0.972424999
 O2 O 0.0846000015 0.222424999 0.972424999
 O2 O 0.1653999985 0.02757499925 0.7775749992500001
 O2 O 0.1653999985 0.222424999 0.7775749992500001
 O2 O 0.0846000015 0.02757499925 0.972424999
 O2 O 0.1653999985 0.02757499925 0.972424999
 O2 O 0.0846000015 0.222424999 0.7775749992500001
 O2 O 0.02757499925 0.0846000015 0.7775749992500001
 O2 O 0.222424999 0.1653999985 0.972424999
 O2 O 0.222424999 0.0846000015 0.972424999
 O2 O 0.02757499925 0.1653999985 0.7775749992500001
 O2 O 0.02757499925 0.1653999985 0.972424999
 O2 O 0.222424999 0.0846000015 0.7775749992500001
 O2 O 0.222424999 0.1653999985 0.7775749992500001
 O2 O 0.02757499925 0.0846000015 0.972424999
 O3 O 0.0 0.07417500025 0.82417500025
 O3 O 0.0 0.07417500025 0.82417500025
 O3 O 0.0 0.17582499975 0.92582499975
 O3 O 0.0 0.17582499975 0.92582499975
 O3 O 0.0 0.17582499975 0.82417500025
 O3 O 0.0 0.17582499975 0.82417500025
 O3 O 0.0 0.07417500025 0.92582499975
 O3 O 0.0 0.07417500025 0.92582499975
 O3 O 0.07417500025 0.0 0.82417500025
 O3 O 0.07417500025 0.0 0.82417500025
 O3 O 0.17582499975 0.0 0.92582499975
 O3 O 0.17582499975 0.0 0.92582499975
 O3 O 0.07417500025 0.0 0.92582499975
 O3 O 0.07417500025 0.0 0.92582499975
 O3 O 0.17582499975 0.0 0.82417500025
 O3 O 0.17582499975 0.0 0.82417500025
 O3 O 0.07417500025 0.07417500025 0.75
 O3 O 0.07417500025 0.07417500025 0.75
 O3 O 0.17582499975 0.17582499975 0.75
 O3 O 0.17582499975 0.17582499975 0.75
 O3 O 0.17582499975 0.07417500025 0.75
 O3 O 0.17582499975 0.07417500025 0.75
 O3 O 0.07417500025 0.17582499975 0.75
 O3 O 0.07417500025 0.17582499975 0.75
 O2 O 0.222424999 0.02757499925 0.8346000015
 O2 O 0.02757498625 0.02757499925 0.8346000015
 O2 O 0.222424999 0.222424999 0.9153999985
 O2 O 0.02757498625 0.222424999 0.9153999985
 O2 O 0.222424999 0.222424999 0.8346000015
 O2 O 0.02757498625 0.222424999 0.8346000015
 O2 O 0.222424999 0.02757499925 0.9153999985
 O2 O 0.02757498625 0.02757499925 0.9153999985
 O2 O 0.0846000015 0.222424999 0.7775749992500001
 O2 O 0.0846000015 0.02757498625 0.7775749992500001
 O2 O 0.1653999985 0.222424999 0.972424999
 O2 O 0.1653999985 0.02757498625 0.972424999
 O2 O 0.0846000015 0.222424999 0.972424999
 O2 O 0.0846000015 0.02757498625 0.972424999
 O2 O 0.1653999985 0.222424999 0.7775749992500001
 O2 O 0.1653999985 0.02757498625 0.7775749992500001
 O2 O 0.02757499925 0.0846000015 0.972424999
 O2 O 0.02757499925 0.0846000015 0.77757498625
 O2 O 0.222424999 0.1653999985 0.972424999
 O2 O 0.222424999 0.1653999985 0.77757498625
 O2 O 0.222424999 0.0846000015 0.972424999
 O2 O 0.222424999 0.0846000015 0.77757498625
 O2 O 0.02757499925 0.1653999985 0.972424999
 O2 O 0.02757499925 0.1653999985 0.77757498625
 O2 O 0.02757499925 0.222424999 0.9153999985
 O2 O 0.02757499925 0.02757498625 0.9153999985
 O2 O 0.222424999 0.222424999 0.8346000015
 O2 O 0.222424999 0.02757498625 0.8346000015
 O2 O 0.222424999 0.222424999 0.9153999985
 O2 O 0.222424999 0.02757498625 0.9153999985
 O2 O 0.02757499925 0.222424999 0.8346000015
 O2 O 0.02757499925 0.02757498625 0.8346000015
 O2 O 0.222424999 0.0846000015 0.972424999
 O2 O 0.02757498625 0.0846000015 0.972424999
 O2 O 0.222424999 0.1653999985 0.7775749992500001
 O2 O 0.02757498625 0.1653999985 0.7775749992500001
 O2 O 0.222424999 0.0846000015 0.7775749992500001
 O2 O 0.02757498625 0.0846000015 0.7775749992500001
 O2 O 0.222424999 0.1653999985 0.972424999
 O2 O 0.02757498625 0.1653999985 0.972424999
 O2 O 0.0846000015 0.02757499925 0.972424999
 O2 O 0.0846000015 0.02757499925 0.77757498625
 O2 O 0.1653999985 0.222424999 0.972424999
 O2 O 0.1653999985 0.222424999 0.77757498625
 O2 O 0.0846000015 0.222424999 0.972424999
 O2 O 0.0846000015 0.222424999 0.77757498625
 O2 O 0.1653999985 0.02757499925 0.972424999
 O2 O 0.1653999985 0.02757499925 0.77757498625
 T1 Si 0.0 0.04557500025 0.84210000175
 T1 Si 0.0 0.04557500025 0.84210000175
 T1 Si 0.0 0.204425007 0.9079000054999999
 T1 Si 0.0 0.204425007 0.9079000054999999
 T1 Si 0.0 0.204425007 0.84210000175
 T1 Si 0.0 0.204425007 0.84210000175
 T1 Si 0.0 0.04557500025 0.9079000054999999
 T1 Si 0.0 0.04557500025 0.9079000054999999
 T1 Si 0.09210000175 0.0 0.7955750002499999
 T1 Si 0.09210000175 0.0 0.7955750002499999
 T1 Si 0.1579000055 0.0 0.954425007
 T1 Si 0.1579000055 0.0 0.954425007
 T1 Si 0.09210000175 0.0 0.954425007
 T1 Si 0.09210000175 0.0 0.954425007
 T1 Si 0.1579000055 0.0 0.7955750002499999
 T1 Si 0.1579000055 0.0 0.7955750002499999
 T1 Si 0.04557500025 0.09210000175 0.75
 T1 Si 0.04557500025 0.09210000175 0.75
 T1 Si 0.204425007 0.1579000055 0.75
 T1 Si 0.204425007 0.1579000055 0.75
 T1 Si 0.204425007 0.09210000175 0.75
 T1 Si 0.204425007 0.09210000175 0.75
 T1 Si 0.04557500025 0.1579000055 0.75
 T1 Si 0.04557500025 0.1579000055 0.75
 T1 Si 0.04557500025 0.0 0.9079000054999999
 T1 Si 0.04557500025 0.0 0.9079000054999999
 T1 Si 0.204425007 0.0 0.84210000175
 T1 Si 0.204425007 0.0 0.84210000175
 T1 Si 0.204425007 0.0 0.9079000054999999
 T1 Si 0.204425007 0.0 0.9079000054999999
 T1 Si 0.04557500025 0.0 0.84210000175
 T1 Si 0.04557500025 0.0 0.84210000175
 T1 Si 0.0 0.09210000175 0.954425007
 T1 Si 0.0 0.09210000175 0.954425007
 T1 Si 0.0 0.1579000055 0.7955750002499999
 T1 Si 0.0 0.1579000055 0.7955750002499999
 T1 Si 0.0 0.09210000175 0.7955750002499999
 T1 Si 0.0 0.09210000175 0.7955750002499999
 T1 Si 0.0 0.1579000055 0.954425007
 T1 Si 0.0 0.1579000055 0.954425007
 T1 Si 0.09210000175 0.04557500025 0.75
 T1 Si 0.09210000175 0.04557500025 0.75
 T1 Si 0.1579000055 0.204425007 0.75
 T1 Si 0.1579000055 0.204425007 0.75
 T1 Si 0.09210000175 0.204425007 0.75
 T1 Si 0.09210000175 0.204425007 0.75
 T1 Si 0.1579000055 0.04557500025 0.75
 T1 Si 0.1579000055 0.04557500025 0.75
 O1 O 0.25 0.05305000025 0.875
 O1 O 0.25 0.05305000025 0.875
 O1 O 0.25 0.1969500035 0.875
 O1 O 0.25 0.1969500035 0.875
 O1 O 0.375 0.0 0.8030500002500001
 O1 O 0.375 0.0 0.8030500002500001
 O1 O 0.375 0.0 0.9469500035
 O1 O 0.375 0.0 0.9469500035
 O1 O 0.30305000025 0.125 0.75
 O1 O 0.30305000025 0.125 0.75
 O1 O 0.4469500035 0.125 0.75
 O1 O 0.4469500035 0.125 0.75
 O1 O 0.30305000025 0.0 0.875
 O1 O 0.30305000025 0.0 0.875
 O1 O 0.4469500035 0.0 0.875
 O1 O 0.4469500035 0.0 0.875
 O1 O 0.25 0.125 0.9469500035
 O1 O 0.25 0.125 0.9469500035
 O1 O 0.25 0.125 0.8030500002500001
 O1 O 0.25 0.125 0.8030500002500001
 O1 O 0.375 0.05305000025 0.75
 O1 O 0.375 0.05305000025 0.75
 O1 O 0.375 0.1969500035 0.75
 O1 O 0.375 0.1969500035 0.75
 O2 O 0.27757499925 0.02757499925 0.8346000015
 O2 O 0.472424999 0.222424999 0.9153999985
 O2 O 0.472424999 0.222424999 0.8346000015
 O2 O 0.27757499925 0.02757499925 0.9153999985
 O2 O 0.472424999 0.02757499925 0.9153999985
 O2 O 0.27757499925 0.222424999 0.8346000015
 O2 O 0.27757499925 0.222424999 0.9153999985
 O2 O 0.472424999 0.02757499925 0.8346000015
 O2 O 0.3346000015 0.02757499925 0.7775749992500001
 O2 O 0.4153999985 0.222424999 0.972424999
 O2 O 0.3346000015 0.222424999 0.972424999
 O2 O 0.4153999985 0.02757499925 0.7775749992500001
 O2 O 0.4153999985 0.222424999 0.7775749992500001
 O2 O 0.3346000015 0.02757499925 0.972424999
 O2 O 0.4153999985 0.02757499925 0.972424999
 O2 O 0.3346000015 0.222424999 0.7775749992500001
 O2 O 0.27757499925 0.0846000015 0.7775749992500001
 O2 O 0.472424999 0.1653999985 0.972424999
 O2 O 0.472424999 0.0846000015 0.972424999
 O2 O 0.27757499925 0.1653999985 0.7775749992500001
 O2 O 0.27757499925 0.1653999985 0.972424999
 O2 O 0.472424999 0.0846000015 0.7775749992500001
 O2 O 0.472424999 0.1653999985 0.7775749992500001
 O2 O 0.27757499925 0.0846000015 0.972424999
 O3 O 0.25 0.07417500025 0.82417500025
 O3 O 0.25 0.07417500025 0.82417500025
 O3 O 0.25 0.17582499975 0.92582499975
 O3 O 0.25 0.17582499975 0.92582499975
 O3 O 0.25 0.17582499975 0.82417500025
 O3 O 0.25 0.17582499975 0.82417500025
 O3 O 0.25 0.07417500025 0.92582499975
 O3 O 0.25 0.07417500025 0.92582499975
 O3 O 0.32417500025 0.0 0.82417500025
 O3 O 0.32417500025 0.0 0.82417500025
 O3 O 0.42582499975 0.0 0.92582499975
 O3 O 0.42582499975 0.0 0.92582499975
 O3 O 0.32417500025 0.0 0.92582499975
 O3 O 0.32417500025 0.0 0.92582499975
 O3 O 0.42582499975 0.0 0.82417500025
 O3 O 0.42582499975 0.0 0.82417500025
 O3 O 0.32417500025 0.07417500025 0.75
 O3 O 0.32417500025 0.07417500025 0.75
 O3 O 0.42582499975 0.17582499975 0.75
 O3 O 0.42582499975 0.17582499975 0.75
 O3 O 0.42582499975 0.07417500025 0.75
 O3 O 0.42582499975 0.07417500025 0.75
 O3 O 0.32417500025 0.17582499975 0.75
 O3 O 0.32417500025 0.17582499975 0.75
 O2 O 0.472424999 0.02757499925 0.8346000015
 O2 O 0.27757498625 0.02757499925 0.8346000015
 O2 O 0.472424999 0.222424999 0.9153999985
 O2 O 0.27757498625 0.222424999 0.9153999985
 O2 O 0.472424999 0.222424999 0.8346000015
 O2 O 0.27757498625 0.222424999 0.8346000015
 O2 O 0.472424999 0.02757499925 0.9153999985
 O2 O 0.27757498625 0.02757499925 0.9153999985
 O2 O 0.3346000015 0.222424999 0.7775749992500001
 O2 O 0.3346000015 0.02757498625 0.7775749992500001
 O2 O 0.4153999985 0.222424999 0.972424999
 O2 O 0.4153999985 0.02757498625 0.972424999
 O2 O 0.3346000015 0.222424999 0.972424999
 O2 O 0.3346000015 0.02757498625 0.972424999
 O2 O 0.4153999985 0.222424999 0.7775749992500001
 O2 O 0.4153999985 0.02757498625 0.7775749992500001
 O2 O 0.27757499925 0.0846000015 0.972424999
 O2 O 0.27757499925 0.0846000015 0.77757498625
 O2 O 0.472424999 0.1653999985 0.972424999
 O2 O 0.472424999 0.1653999985 0.77757498625
 O2 O 0.472424999 0.0846000015 0.972424999
 O2 O 0.472424999 0.0846000015 0.77757498625
 O2 O 0.27757499925 0.1653999985 0.972424999
 O2 O 0.27757499925 0.1653999985 0.77757498625
 O2 O 0.27757499925 0.222424999 0.9153999985
 O2 O 0.27757499925 0.02757498625 0.9153999985
 O2 O 0.472424999 0.222424999 0.8346000015
 O2 O 0.472424999 0.02757498625 0.8346000015
 O2 O 0.472424999 0.222424999 0.9153999985
 O2 O 0.472424999 0.02757498625 0.9153999985
 O2 O 0.27757499925 0.222424999 0.8346000015
 O2 O 0.27757499925 0.02757498625 0.8346000015
 O2 O 0.472424999 0.0846000015 0.972424999
 O2 O 0.27757498625 0.0846000015 0.972424999
 O2 O 0.472424999 0.1653999985 0.7775749992500001
 O2 O 0.27757498625 0.1653999985 0.7775749992500001
 O2 O 0.472424999 0.0846000015 0.7775749992500001
 O2 O 0.27757498625 0.0846000015 0.7775749992500001
 O2 O 0.472424999 0.1653999985 0.972424999
 O2 O 0.27757498625 0.1653999985 0.972424999
 O2 O 0.3346000015 0.02757499925 0.972424999
 O2 O 0.3346000015 0.02757499925 0.77757498625
 O2 O 0.4153999985 0.222424999 0.972424999
 O2 O 0.4153999985 0.222424999 0.77757498625
 O2 O 0.3346000015 0.222424999 0.972424999
 O2 O 0.3346000015 0.222424999 0.77757498625
 O2 O 0.4153999985 0.02757499925 0.972424999
 O2 O 0.4153999985 0.02757499925 0.77757498625
 T1 Si 0.25 0.04557500025 0.84210000175
 T1 Si 0.25 0.04557500025 0.84210000175
 T1 Si 0.25 0.204425007 0.9079000054999999
 T1 Si 0.25 0.204425007 0.9079000054999999
 T1 Si 0.25 0.204425007 0.84210000175
 T1 Si 0.25 0.204425007 0.84210000175
 T1 Si 0.25 0.04557500025 0.9079000054999999
 T1 Si 0.25 0.04557500025 0.9079000054999999
 T1 Si 0.34210000175 0.0 0.7955750002499999
 T1 Si 0.34210000175 0.0 0.7955750002499999
 T1 Si 0.4079000055 0.0 0.954425007
 T1 Si 0.4079000055 0.0 0.954425007
 T1 Si 0.34210000175 0.0 0.954425007
 T1 Si 0.34210000175 0.0 0.954425007
 T1 Si 0.4079000055 0.0 0.7955750002499999
 T1 Si 0.4079000055 0.0 0.7955750002499999
 T1 Si 0.29557500025 0.09210000175 0.75
 T1 Si 0.29557500025 0.09210000175 0.75
 T1 Si 0.454425007 0.1579000055 0.75
 T1 Si 0.454425007 0.1579000055 0.75
 T1 Si 0.454425007 0.09210000175 0.75
 T1 Si 0.454425007 0.09210000175 0.75
 T1 Si 0.29557500025 0.1579000055 0.75
 T1 Si 0.29557500025 0.1579000055 0.75
 T1 Si 0.29557500025 0.0 0.9079000054999999
 T1 Si 0.29557500025 0.0 0.9079000054999999
 T1 Si 0.454425007 0.0 0.84210000175
 T1 Si 0.454425007 0.0 0.84210000175
 T1 Si 0.454425007 0.0 0.9079000054999999
 T1 Si 0.454425007 0.0 0.9079000054999999
 T1 Si 0.29557500025 0.0 0.84210000175
 T1 Si 0.29557500025 0.0 0.84210000175
 T1 Si 0.25 0.09210000175 0.954425007
 T1 Si 0.25 0.09210000175 0.954425007
 T1 Si 0.25 0.1579000055 0.7955750002499999
 T1 Si 0.25 0.1579000055 0.7955750002499999
 T1 Si 0.25 0.09210000175 0.7955750002499999
 T1 Si 0.25 0.09210000175 0.7955750002499999
 T1 Si 0.25 0.1579000055 0.954425007
 T1 Si 0.25 0.1579000055 0.954425007
 T1 Si 0.34210000175 0.04557500025 0.75
 T1 Si 0.34210000175 0.04557500025 0.75
 T1 Si 0.4079000055 0.204425007 0.75
 T1 Si 0.4079000055 0.204425007 0.75
 T1 Si 0.34210000175 0.204425007 0.75
 T1 Si 0.34210000175 0.204425007 0.75
 T1 Si 0.4079000055 0.04557500025 0.75
 T1 Si 0.4079000055 0.04557500025 0.75
 O1 O 0.5 0.05305000025 0.875
 O1 O 0.5 0.05305000025 0.875
 O1 O 0.5 0.1969500035 0.875
 O1 O 0.5 0.1969500035 0.875
 O1 O 0.625 0.0 0.8030500002500001
 O1 O 0.625 0.0 0.8030500002500001
 O1 O 0.625 0.0 0.9469500035
 O1 O 0.625 0.0 0.9469500035
 O1 O 0.5530500002500001 0.125 0.75
 O1 O 0.5530500002500001 0.125 0.75
 O1 O 0.6969500035 0.125 0.75
 O1 O 0.6969500035 0.125 0.75
 O1 O 0.5530500002500001 0.0 0.875
 O1 O 0.5530500002500001 0.0 0.875
 O1 O 0.6969500035 0.0 0.875
 O1 O 0.6969500035 0.0 0.875
 O1 O 0.5 0.125 0.9469500035
 O1 O 0.5 0.125 0.9469500035
 O1 O 0.5 0.125 0.8030500002500001
 O1 O 0.5 0.125 0.8030500002500001
 O1 O 0.625 0.05305000025 0.75
 O1 O 0.625 0.05305000025 0.75
 O1 O 0.625 0.1969500035 0.75
 O1 O 0.625 0.1969500035 0.75
 O2 O 0.5275749992500001 0.02757499925 0.8346000015
 O2 O 0.722424999 0.222424999 0.9153999985
 O2 O 0.722424999 0.222424999 0.8346000015
 O2 O 0.5275749992500001 0.02757499925 0.9153999985
 O2 O 0.722424999 0.02757499925 0.9153999985
 O2 O 0.5275749992500001 0.222424999 0.8346000015
 O2 O 0.5275749992500001 0.222424999 0.9153999985
 O2 O 0.722424999 0.02757499925 0.8346000015
 O2 O 0.5846000015 0.02757499925 0.7775749992500001
 O2 O 0.6653999985 0.222424999 0.972424999
 O2 O 0.5846000015 0.222424999 0.972424999
 O2 O 0.6653999985 0.02757499925 0.7775749992500001
 O2 O 0.6653999985 0.222424999 0.7775749992500001
 O2 O 0.5846000015 0.02757499925 0.972424999
 O2 O 0.6653999985 0.02757499925 0.972424999
 O2 O 0.5846000015 0.222424999 0.7775749992500001
 O2 O 0.5275749992500001 0.0846000015 0.7775749992500001
 O2 O 0.722424999 0.1653999985 0.972424999
 O2 O 0.722424999 0.0846000015 0.972424999
 O2 O 0.5275749992500001 0.1653999985 0.7775749992500001
 O2 O 0.5275749992500001 0.1653999985 0.972424999
 O2 O 0.722424999 0.0846000015 0.7775749992500001
 O2 O 0.722424999 0.1653999985 0.7775749992500001
 O2 O 0.5275749992500001 0.0846000015 0.972424999
 O3 O 0.5 0.07417500025 0.82417500025
 O3 O 0.5 0.07417500025 0.82417500025
 O3 O 0.5 0.17582499975 0.92582499975
 O3 O 0.5 0.17582499975 0.92582499975
 O3 O 0.5 0.17582499975 0.82417500025
 O3 O 0.5 0.17582499975 0.82417500025
 O3 O 0.5 0.07417500025 0.92582499975
 O3 O 0.5 0.07417500025 0.92582499975
 O3 O 0.57417500025 0.0 0.82417500025
 O3 O 0.57417500025 0.0 0.82417500025
 O3 O 0.67582499975 0.0 0.92582499975
 O3 O 0.67582499975 0.0 0.92582499975
 O3 O 0.57417500025 0.0 0.92582499975
 O3 O 0.57417500025 0.0 0.92582499975
 O3 O 0.67582499975 0.0 0.82417500025
 O3 O 0.67582499975 0.0 0.82417500025
 O3 O 0.57417500025 0.07417500025 0.75
 O3 O 0.57417500025 0.07417500025 0.75
 O3 O 0.67582499975 0.17582499975 0.75
 O3 O 0.67582499975 0.17582499975 0.75
 O3 O 0.67582499975 0.07417500025 0.75
 O3 O 0.67582499975 0.07417500025 0.75
 O3 O 0.57417500025 0.17582499975 0.75
 O3 O 0.57417500025 0.17582499975 0.75
 O2 O 0.722424999 0.02757499925 0.8346000015
 O2 O 0.52757498625 0.02757499925 0.8346000015
 O2 O 0.722424999 0.222424999 0.9153999985
 O2 O 0.52757498625 0.222424999 0.9153999985
 O2 O 0.722424999 0.222424999 0.8346000015
 O2 O 0.52757498625 0.222424999 0.8346000015
 O2 O 0.722424999 0.02757499925 0.9153999985
 O2 O 0.52757498625 0.02757499925 0.9153999985
 O2 O 0.5846000015 0.222424999 0.7775749992500001
 O2 O 0.5846000015 0.02757498625 0.7775749992500001
 O2 O 0.6653999985 0.222424999 0.972424999
 O2 O 0.6653999985 0.02757498625 0.972424999
 O2 O 0.5846000015 0.222424999 0.972424999
 O2 O 0.5846000015 0.02757498625 0.972424999
 O2 O 0.6653999985 0.222424999 0.7775749992500001
 O2 O 0.6653999985 0.02757498625 0.7775749992500001
 O2 O 0.5275749992500001 0.0846000015 0.972424999
 O2 O 0.5275749992500001 0.0846000015 0.77757498625
 O2 O 0.722424999 0.1653999985 0.972424999
 O2 O 0.722424999 0.1653999985 0.77757498625
 O2 O 0.722424999 0.0846000015 0.972424999
 O2 O 0.722424999 0.0846000015 0.77757498625
 O2 O 0.5275749992500001 0.1653999985 0.972424999
 O2 O 0.5275749992500001 0.1653999985 0.77757498625
 O2 O 0.5275749992500001 0.222424999 0.9153999985
 O2 O 0.5275749992500001 0.02757498625 0.9153999985
 O2 O 0.722424999 0.222424999 0.8346000015
 O2 O 0.722424999 0.02757498625 0.8346000015
 O2 O 0.722424999 0.222424999 0.9153999985
 O2 O 0.722424999 0.02757498625 0.9153999985
 O2 O 0.5275749992500001 0.222424999 0.8346000015
 O2 O 0.5275749992500001 0.02757498625 0.8346000015
 O2 O 0.722424999 0.0846000015 0.972424999
 O2 O 0.52757498625 0.0846000015 0.972424999
 O2 O 0.722424999 0.1653999985 0.7775749992500001
 O2 O 0.52757498625 0.1653999985 0.7775749992500001
 O2 O 0.722424999 0.0846000015 0.7775749992500001
 O2 O 0.52757498625 0.0846000015 0.7775749992500001
 O2 O 0.722424999 0.1653999985 0.972424999
 O2 O 0.52757498625 0.1653999985 0.972424999
 O2 O 0.5846000015 0.02757499925 0.972424999
 O2 O 0.5846000015 0.02757499925 0.77757498625
 O2 O 0.6653999985 0.222424999 0.972424999
 O2 O 0.6653999985 0.222424999 0.77757498625
 O2 O 0.5846000015 0.222424999 0.972424999
 O2 O 0.5846000015 0.222424999 0.77757498625
 O2 O 0.6653999985 0.02757499925 0.972424999
 O2 O 0.6653999985 0.02757499925 0.77757498625
 T1 Si 0.5 0.04557500025 0.84210000175
 T1 Si 0.5 0.04557500025 0.84210000175
 T1 Si 0.5 0.204425007 0.9079000054999999
 T1 Si 0.5 0.204425007 0.9079000054999999
 T1 Si 0.5 0.204425007 0.84210000175
 T1 Si 0.5 0.204425007 0.84210000175
 T1 Si 0.5 0.04557500025 0.9079000054999999
 T1 Si 0.5 0.04557500025 0.9079000054999999
 T1 Si 0.59210000175 0.0 0.7955750002499999
 T1 Si 0.59210000175 0.0 0.7955750002499999
 T1 Si 0.6579000054999999 0.0 0.954425007
 T1 Si 0.6579000054999999 0.0 0.954425007
 T1 Si 0.59210000175 0.0 0.954425007
 T1 Si 0.59210000175 0.0 0.954425007
 T1 Si 0.6579000054999999 0.0 0.7955750002499999
 T1 Si 0.6579000054999999 0.0 0.7955750002499999
 T1 Si 0.5455750002499999 0.09210000175 0.75
 T1 Si 0.5455750002499999 0.09210000175 0.75
 T1 Si 0.704425007 0.1579000055 0.75
 T1 Si 0.704425007 0.1579000055 0.75
 T1 Si 0.704425007 0.09210000175 0.75
 T1 Si 0.704425007 0.09210000175 0.75
 T1 Si 0.5455750002499999 0.1579000055 0.75
 T1 Si 0.5455750002499999 0.1579000055 0.75
 T1 Si 0.5455750002499999 0.0 0.9079000054999999
 T1 Si 0.5455750002499999 0.0 0.9079000054999999
 T1 Si 0.704425007 0.0 0.84210000175
 T1 Si 0.704425007 0.0 0.84210000175
 T1 Si 0.704425007 0.0 0.9079000054999999
 T1 Si 0.704425007 0.0 0.9079000054999999
 T1 Si 0.5455750002499999 0.0 0.84210000175
 T1 Si 0.5455750002499999 0.0 0.84210000175
 T1 Si 0.5 0.09210000175 0.954425007
 T1 Si 0.5 0.09210000175 0.954425007
 T1 Si 0.5 0.1579000055 0.7955750002499999
 T1 Si 0.5 0.1579000055 0.7955750002499999
 T1 Si 0.5 0.09210000175 0.7955750002499999
 T1 Si 0.5 0.09210000175 0.7955750002499999
 T1 Si 0.5 0.1579000055 0.954425007
 T1 Si 0.5 0.1579000055 0.954425007
 T1 Si 0.59210000175 0.04557500025 0.75
 T1 Si 0.59210000175 0.04557500025 0.75
 T1 Si 0.6579000054999999 0.204425007 0.75
 T1 Si 0.6579000054999999 0.204425007 0.75
 T1 Si 0.59210000175 0.204425007 0.75
 T1 Si 0.59210000175 0.204425007 0.75
 T1 Si 0.6579000054999999 0.04557500025 0.75
 T1 Si 0.6579000054999999 0.04557500025 0.75
 O1 O 0.75 0.05305000025 0.875
 O1 O 0.75 0.05305000025 0.875
 O1 O 0.75 0.1969500035 0.875
 O1 O 0.75 0.1969500035 0.875
 O1 O 0.875 0.0 0.8030500002500001
 O1 O 0.875 0.0 0.8030500002500001
 O1 O 0.875 0.0 0.9469500035
 O1 O 0.875 0.0 0.9469500035
 O1 O 0.8030500002500001 0.125 0.75
 O1 O 0.8030500002500001 0.125 0.75
 O1 O 0.9469500035 0.125 0.75
 O1 O 0.9469500035 0.125 0.75
 O1 O 0.8030500002500001 0.0 0.875
 O1 O 0.8030500002500001 0.0 0.875
 O1 O 0.9469500035 0.0 0.875
 O1 O 0.9469500035 0.0 0.875
 O1 O 0.75 0.125 0.9469500035
 O1 O 0.75 0.125 0.9469500035
 O1 O 0.75 0.125 0.8030500002500001
 O1 O 0.75 0.125 0.8030500002500001
 O1 O 0.875 0.05305000025 0.75
 O1 O 0.875 0.05305000025 0.75
 O1 O 0.875 0.1969500035 0.75
 O1 O 0.875 0.1969500035 0.75
 O2 O 0.7775749992500001 0.02757499925 0.8346000015
 O2 O 0.972424999 0.222424999 0.9153999985
 O2 O 0.972424999 0.222424999 0.8346000015
 O2 O 0.7775749992500001 0.02757499925 0.9153999985
 O2 O 0.972424999 0.02757499925 0.9153999985
 O2 O 0.7775749992500001 0.222424999 0.8346000015
 O2 O 0.7775749992500001 0.222424999 0.9153999985
 O2 O 0.972424999 0.02757499925 0.8346000015
 O2 O 0.8346000015 0.02757499925 0.7775749992500001
 O2 O 0.9153999985 0.222424999 0.972424999
 O2 O 0.8346000015 0.222424999 0.972424999
 O2 O 0.9153999985 0.02757499925 0.7775749992500001
 O2 O 0.9153999985 0.222424999 0.7775749992500001
 O2 O 0.8346000015 0.02757499925 0.972424999
 O2 O 0.9153999985 0.02757499925 0.972424999
 O2 O 0.8346000015 0.222424999 0.7775749992500001
 O2 O 0.7775749992500001 0.0846000015 0.7775749992500001
 O2 O 0.972424999 0.1653999985 0.972424999
 O2 O 0.972424999 0.0846000015 0.972424999
 O2 O 0.7775749992500001 0.1653999985 0.7775749992500001
 O2 O 0.7775749992500001 0.1653999985 0.972424999
 O2 O 0.972424999 0.0846000015 0.7775749992500001
 O2 O 0.972424999 0.1653999985 0.7775749992500001
 O2 O 0.7775749992500001 0.0846000015 0.972424999
 O3 O 0.75 0.07417500025 0.82417500025
 O3 O 0.75 0.07417500025 0.82417500025
 O3 O 0.75 0.17582499975 0.92582499975
 O3 O 0.75 0.17582499975 0.92582499975
 O3 O 0.75 0.17582499975 0.82417500025
 O3 O 0.75 0.17582499975 0.82417500025
 O3 O 0.75 0.07417500025 0.92582499975
 O3 O 0.75 0.07417500025 0.92582499975
 O3 O 0.82417500025 0.0 0.82417500025
 O3 O 0.82417500025 0.0 0.82417500025
 O3 O 0.92582499975 0.0 0.92582499975
 O3 O 0.92582499975 0.0 0.92582499975
 O3 O 0.82417500025 0.0 0.92582499975
 O3 O 0.82417500025 0.0 0.92582499975
 O3 O 0.92582499975 0.0 0.82417500025
 O3 O 0.92582499975 0.0 0.82417500025
 O3 O 0.82417500025 0.07417500025 0.75
 O3 O 0.82417500025 0.07417500025 0.75
 O3 O 0.92582499975 0.17582499975 0.75
 O3 O 0.92582499975 0.17582499975 0.75
 O3 O 0.92582499975 0.07417500025 0.75
 O3 O 0.92582499975 0.07417500025 0.75
 O3 O 0.82417500025 0.17582499975 0.75
 O3 O 0.82417500025 0.17582499975 0.75
 O2 O 0.972424999 0.02757499925 0.8346000015
 O2 O 0.77757498625 0.02757499925 0.8346000015
 O2 O 0.972424999 0.222424999 0.9153999985
 O2 O 0.77757498625 0.222424999 0.9153999985
 O2 O 0.972424999 0.222424999 0.8346000015
 O2 O 0.77757498625 0.222424999 0.8346000015
 O2 O 0.972424999 0.02757499925 0.9153999985
 O2 O 0.77757498625 0.02757499925 0.9153999985
 O2 O 0.8346000015 0.222424999 0.7775749992500001
 O2 O 0.8346000015 0.02757498625 0.7775749992500001
 O2 O 0.9153999985 0.222424999 0.972424999
 O2 O 0.9153999985 0.02757498625 0.972424999
 O2 O 0.8346000015 0.222424999 0.972424999
 O2 O 0.8346000015 0.02757498625 0.972424999
 O2 O 0.9153999985 0.222424999 0.7775749992500001
 O2 O 0.9153999985 0.02757498625 0.7775749992500001
 O2 O 0.7775749992500001 0.0846000015 0.972424999
 O2 O 0.7775749992500001 0.0846000015 0.77757498625
 O2 O 0.972424999 0.1653999985 0.972424999
 O2 O 0.972424999 0.1653999985 0.77757498625
 O2 O 0.972424999 0.0846000015 0.972424999
 O2 O 0.972424999 0.0846000015 0.77757498625
 O2 O 0.7775749992500001 0.1653999985 0.972424999
 O2 O 0.7775749992500001 0.1653999985 0.77757498625
 O2 O 0.7775749992500001 0.222424999 0.9153999985
 O2 O 0.7775749992500001 0.02757498625 0.9153999985
 O2 O 0.972424999 0.222424999 0.8346000015
 O2 O 0.972424999 0.02757498625 0.8346000015
 O2 O 0.972424999 0.222424999 0.9153999985
 O2 O 0.972424999 0.02757498625 0.9153999985
 O2 O 0.7775749992500001 0.222424999 0.8346000015
 O2 O 0.7775749992500001 0.02757498625 0.8346000015
 O2 O 0.972424999 0.0846000015 0.972424999
 O2 O 0.77757498625 0.0846000015 0.972424999
 O2 O 0.972424999 0.1653999985 0.7775749992500001
 O2 O 0.77757498625 0.1653999985 0.7775749992500001
 O2 O 0.972424999 0.0846000015 0.7775749992500001
 O2 O 0.77757498625 0.0846000015 0.7775749992500001
 O2 O 0.972424999 0.1653999985 0.972424999
 O2 O 0.77757498625 0.1653999985 0.972424999
 O2 O 0.8346000015 0.02757499925 0.972424999
 O2 O 0.8346000015 0.02757499925 0.77757498625
 O2 O 0.9153999985 0.222424999 0.972424999
 O2 O 0.9153999985 0.222424999 0.77757498625
 O2 O 0.8346000015 0.222424999 0.972424999
 O2 O 0.8346000015 0.222424999 0.77757498625
 O2 O 0.9153999985 0.02757499925 0.972424999
 O2 O 0.9153999985 0.02757499925 0.77757498625
 T1 Si 0.75 0.04557500025 0.84210000175
 T1 Si 0.75 0.04557500025 0.84210000175
 T1 Si 0.75 0.204425007 0.9079000054999999
 T1 Si 0.75 0.204425007 0.9079000054999999
 T1 Si 0.75 0.204425007 0.84210000175
 T1 Si 0.75 0.204425007 0.84210000175
 T1 Si 0.75 0.04557500025 0.9079000054999999
 T1 Si 0.75 0.04557500025 0.9079000054999999
 T1 Si 0.84210000175 0.0 0.7955750002499999
 T1 Si 0.84210000175 0.0 0.7955750002499999
 T1 Si 0.9079000054999999 0.0 0.954425007
 T1 Si 0.9079000054999999 0.0 0.954425007
 T1 Si 0.84210000175 0.0 0.954425007
 T1 Si 0.84210000175 0.0 0.954425007
 T1 Si 0.9079000054999999 0.0 0.7955750002499999
 T1 Si 0.9079000054999999 0.0 0.7955750002499999
 T1 Si 0.7955750002499999 0.09210000175 0.75
 T1 Si 0.7955750002499999 0.09210000175 0.75
 T1 Si 0.954425007 0.1579000055 0.75
 T1 Si 0.954425007 0.1579000055 0.75
 T1 Si 0.954425007 0.09210000175 0.75
 T1 Si 0.954425007 0.09210000175 0.75
 T1 Si 0.7955750002499999 0.1579000055 0.75
 T1 Si 0.7955750002499999 0.1579000055 0.75
 T1 Si 0.7955750002499999 0.0 0.9079000054999999
 T1 Si 0.7955750002499999 0.0 0.9079000054999999
 T1 Si 0.954425007 0.0 0.84210000175
 T1 Si 0.954425007 0.0 0.84210000175
 T1 Si 0.954425007 0.0 0.9079000054999999
 T1 Si 0.954425007 0.0 0.9079000054999999
 T1 Si 0.7955750002499999 0.0 0.84210000175
 T1 Si 0.7955750002499999 0.0 0.84210000175
 T1 Si 0.75 0.09210000175 0.954425007
 T1 Si 0.75 0.09210000175 0.954425007
 T1 Si 0.75 0.1579000055 0.7955750002499999
 T1 Si 0.75 0.1579000055 0.7955750002499999
 T1 Si 0.75 0.09210000175 0.7955750002499999
 T1 Si 0.75 0.09210000175 0.7955750002499999
 T1 Si 0.75 0.1579000055 0.954425007
 T1 Si 0.75 0.1579000055 0.954425007
 T1 Si 0.84210000175 0.04557500025 0.75
 T1 Si 0.84210000175 0.04557500025 0.75
 T1 Si 0.9079000054999999 0.204425007 0.75
 T1 Si 0.9079000054999999 0.204425007 0.75
 T1 Si 0.84210000175 0.204425007 0.75
 T1 Si 0.84210000175 0.204425007 0.75
 T1 Si 0.9079000054999999 0.04557500025 0.75
 T1 Si 0.9079000054999999 0.04557500025 0.75
 O1 O 0.0 0.30305000025 0.875
 O1 O 0.0 0.30305000025 0.875
 O1 O 0.0 0.4469500035 0.875
 O1 O 0.0 0.4469500035 0.875
 O1 O 0.125 0.25 0.8030500002500001
 O1 O 0.125 0.25 0.8030500002500001
 O1 O 0.125 0.25 0.9469500035
 O1 O 0.125 0.25 0.9469500035
 O1 O 0.05305000025 0.375 0.75
 O1 O 0.05305000025 0.375 0.75
 O1 O 0.1969500035 0.375 0.75
 O1 O 0.1969500035 0.375 0.75
 O1 O 0.05305000025 0.25 0.875
 O1 O 0.05305000025 0.25 0.875
 O1 O 0.1969500035 0.25 0.875
 O1 O 0.1969500035 0.25 0.875
 O1 O 0.0 0.375 0.9469500035
 O1 O 0.0 0.375 0.9469500035
 O1 O 0.0 0.375 0.8030500002500001
 O1 O 0.0 0.375 0.8030500002500001
 O1 O 0.125 0.30305000025 0.75
 O1 O 0.125 0.30305000025 0.75
 O1 O 0.125 0.4469500035 0.75
 O1 O 0.125 0.4469500035 0.75
 O2 O 0.02757499925 0.27757499925 0.8346000015
 O2 O 0.222424999 0.472424999 0.9153999985
 O2 O 0.222424999 0.472424999 0.8346000015
 O2 O 0.02757499925 0.27757499925 0.9153999985
 O2 O 0.222424999 0.27757499925 0.9153999985
 O2 O 0.02757499925 0.472424999 0.8346000015
 O2 O 0.02757499925 0.472424999 0.9153999985
 O2 O 0.222424999 0.27757499925 0.8346000015
 O2 O 0.0846000015 0.27757499925 0.7775749992500001
 O2 O 0.1653999985 0.472424999 0.972424999
 O2 O 0.0846000015 0.472424999 0.972424999
 O2 O 0.1653999985 0.27757499925 0.7775749992500001
 O2 O 0.1653999985 0.472424999 0.7775749992500001
 O2 O 0.0846000015 0.27757499925 0.972424999
 O2 O 0.1653999985 0.27757499925 0.972424999
 O2 O 0.0846000015 0.472424999 0.7775749992500001
 O2 O 0.02757499925 0.3346000015 0.7775749992500001
 O2 O 0.222424999 0.4153999985 0.972424999
 O2 O 0.222424999 0.3346000015 0.972424999
 O2 O 0.02757499925 0.4153999985 0.7775749992500001
 O2 O 0.02757499925 0.4153999985 0.972424999
 O2 O 0.222424999 0.3346000015 0.7775749992500001
 O2 O 0.222424999 0.4153999985 0.7775749992500001
 O2 O 0.02757499925 0.3346000015 0.972424999
 O3 O 0.0 0.32417500025 0.82417500025
 O3 O 0.0 0.32417500025 0.82417500025
 O3 O 0.0 0.42582499975 0.92582499975
 O3 O 0.0 0.42582499975 0.92582499975
 O3 O 0.0 0.42582499975 0.82417500025
 O3 O 0.0 0.42582499975 0.82417500025
 O3 O 0.0 0.32417500025 0.92582499975
 O3 O 0.0 0.32417500025 0.92582499975
 O3 O 0.07417500025 0.25 0.82417500025
 O3 O 0.07417500025 0.25 0.82417500025
 O3 O 0.17582499975 0.25 0.92582499975
 O3 O 0.17582499975 0.25 0.92582499975
 O3 O 0.07417500025 0.25 0.92582499975
 O3 O 0.07417500025 0.25 0.92582499975
 O3 O 0.17582499975 0.25 0.82417500025
 O3 O 0.17582499975 0.25 0.82417500025
 O3 O 0.07417500025 0.32417500025 0.75
 O3 O 0.07417500025 0.32417500025 0.75
 O3 O 0.17582499975 0.42582499975 0.75
 O3 O 0.17582499975 0.42582499975 0.75
 O3 O 0.17582499975 0.32417500025 0.75
 O3 O 0.17582499975 0.32417500025 0.75
 O3 O 0.07417500025 0.42582499975 0.75
 O3 O 0.07417500025 0.42582499975 0.75
 O2 O 0.222424999 0.27757499925 0.8346000015
 O2 O 0.02757498625 0.27757499925 0.8346000015
 O2 O 0.222424999 0.472424999 0.9153999985
 O2 O 0.02757498625 0.472424999 0.9153999985
 O2 O 0.222424999 0.472424999 0.8346000015
 O2 O 0.02757498625 0.472424999 0.8346000015
 O2 O 0.222424999 0.27757499925 0.9153999985
 O2 O 0.02757498625 0.27757499925 0.9153999985
 O2 O 0.0846000015 0.472424999 0.7775749992500001
 O2 O 0.0846000015 0.27757498625 0.7775749992500001
 O2 O 0.1653999985 0.472424999 0.972424999
 O2 O 0.1653999985 0.27757498625 0.972424999
 O2 O 0.0846000015 0.472424999 0.972424999
 O2 O 0.0846000015 0.27757498625 0.972424999
 O2 O 0.1653999985 0.472424999 0.7775749992500001
 O2 O 0.1653999985 0.27757498625 0.7775749992500001
 O2 O 0.02757499925 0.3346000015 0.972424999
 O2 O 0.02757499925 0.3346000015 0.77757498625
 O2 O 0.222424999 0.4153999985 0.972424999
 O2 O 0.222424999 0.4153999985 0.77757498625
 O2 O 0.222424999 0.3346000015 0.972424999
 O2 O 0.222424999 0.3346000015 0.77757498625
 O2 O 0.02757499925 0.4153999985 0.972424999
 O2 O 0.02757499925 0.4153999985 0.77757498625
 O2 O 0.02757499925 0.472424999 0.9153999985
 O2 O 0.02757499925 0.27757498625 0.9153999985
 O2 O 0.222424999 0.472424999 0.8346000015
 O2 O 0.222424999 0.27757498625 0.8346000015
 O2 O 0.222424999 0.472424999 0.9153999985
 O2 O 0.222424999 0.27757498625 0.9153999985
 O2 O 0.02757499925 0.472424999 0.8346000015
 O2 O 0.02757499925 0.27757498625 0.8346000015
 O2 O 0.222424999 0.3346000015 0.972424999
 O2 O 0.02757498625 0.3346000015 0.972424999
 O2 O 0.222424999 0.4153999985 0.7775749992500001
 O2 O 0.02757498625 0.4153999985 0.7775749992500001
 O2 O 0.222424999 0.3346000015 0.7775749992500001
 O2 O 0.02757498625 0.3346000015 0.7775749992500001
 O2 O 0.222424999 0.4153999985 0.972424999
 O2 O 0.02757498625 0.4153999985 0.972424999
 O2 O 0.0846000015 0.27757499925 0.972424999
 O2 O 0.0846000015 0.27757499925 0.77757498625
 O2 O 0.1653999985 0.472424999 0.972424999
 O2 O 0.1653999985 0.472424999 0.77757498625
 O2 O 0.0846000015 0.472424999 0.972424999
 O2 O 0.0846000015 0.472424999 0.77757498625
 O2 O 0.1653999985 0.27757499925 0.972424999
 O2 O 0.1653999985 0.27757499925 0.77757498625
 T1 Si 0.0 0.29557500025 0.84210000175
 T1 Si 0.0 0.29557500025 0.84210000175
 T1 Si 0.0 0.454425007 0.9079000054999999
 T1 Si 0.0 0.454425007 0.9079000054999999
 T1 Si 0.0 0.454425007 0.84210000175
 T1 Si 0.0 0.454425007 0.84210000175
 T1 Si 0.0 0.29557500025 0.9079000054999999
 T1 Si 0.0 0.29557500025 0.9079000054999999
 T1 Si 0.09210000175 0.25 0.7955750002499999
 T1 Si 0.09210000175 0.25 0.7955750002499999
 T1 Si 0.1579000055 0.25 0.954425007
 T1 Si 0.1579000055 0.25 0.954425007
 T1 Si 0.09210000175 0.25 0.954425007
 T1 Si 0.09210000175 0.25 0.954425007
 T1 Si 0.1579000055 0.25 0.7955750002499999
 T1 Si 0.1579000055 0.25 0.7955750002499999
 T1 Si 0.04557500025 0.34210000175 0.75
 T1 Si 0.04557500025 0.34210000175 0.75
 T1 Si 0.204425007 0.4079000055 0.75
 T1 Si 0.204425007 0.4079000055 0.75
 T1 Si 0.204425007 0.34210000175 0.75
 T1 Si 0.204425007 0.34210000175 0.75
 T1 Si 0.04557500025 0.4079000055 0.75
 T1 Si 0.04557500025 0.4079000055 0.75
 T1 Si 0.04557500025 0.25 0.9079000054999999
 T1 Si 0.04557500025 0.25 0.9079000054999999
 T1 Si 0.204425007 0.25 0.84210000175
 T1 Si 0.204425007 0.25 0.84210000175
 T1 Si 0.204425007 0.25 0.9079000054999999
 T1 Si 0.204425007 0.25 0.9079000054999999
 T1 Si 0.04557500025 0.25 0.84210000175
 T1 Si 0.04557500025 0.25 0.84210000175
 T1 Si 0.0 0.34210000175 0.954425007
 T1 Si 0.0 0.34210000175 0.954425007
 T1 Si 0.0 0.4079000055 0.7955750002499999
 T1 Si 0.0 0.4079000055 0.7955750002499999
 T1 Si 0.0 0.34210000175 0.7955750002499999
 T1 Si 0.0 0.34210000175 0.7955750002499999
 T1 Si 0.0 0.4079000055 0.954425007
 T1 Si 0.0 0.4079000055 0.954425007
 T1 Si 0.09210000175 0.29557500025 0.75
 T1 Si 0.09210000175 0.29557500025 0.75
 T1 Si 0.1579000055 0.454425007 0.75
 T1 Si 0.1579000055 0.454425007 0.75
 T1 Si 0.09210000175 0.454425007 0.75
 T1 Si 0.09210000175 0.454425007 0.75
 T1 Si 0.1579000055 0.29557500025 0.75
 T1 Si 0.1579000055 0.29557500025 0.75
 O1 O 0.25 0.30305000025 0.875
 O1 O 0.25 0.30305000025 0.875
 O1 O 0.25 0.4469500035 0.875
 O1 O 0.25 0.4469500035 0.875
 O1 O 0.375 0.25 0.8030500002500001
 O1 O 0.375 0.25 0.8030500002500001
 O1 O 0.375 0.25 0.9469500035
 O1 O 0.375 0.25 0.9469500035
 O1 O 0.30305000025 0.375 0.75
 O1 O 0.30305000025 0.375 0.75
 O1 O 0.4469500035 0.375 0.75
 O1 O 0.4469500035 0.375 0.75
 O1 O 0.30305000025 0.25 0.875
 O1 O 0.30305000025 0.25 0.875
 O1 O 0.4469500035 0.25 0.875
 O1 O 0.4469500035 0.25 0.875
 O1 O 0.25 0.375 0.9469500035
 O1 O 0.25 0.375 0.9469500035
 O1 O 0.25 0.375 0.8030500002500001
 O1 O 0.25 0.375 0.8030500002500001
 O1 O 0.375 0.30305000025 0.75
 O1 O 0.375 0.30305000025 0.75
 O1 O 0.375 0.4469500035 0.75
 O1 O 0.375 0.4469500035 0.75
 O2 O 0.27757499925 0.27757499925 0.8346000015
 O2 O 0.472424999 0.472424999 0.9153999985
 O2 O 0.472424999 0.472424999 0.8346000015
 O2 O 0.27757499925 0.27757499925 0.9153999985
 O2 O 0.472424999 0.27757499925 0.9153999985
 O2 O 0.27757499925 0.472424999 0.8346000015
 O2 O 0.27757499925 0.472424999 0.9153999985
 O2 O 0.472424999 0.27757499925 0.8346000015
 O2 O 0.3346000015 0.27757499925 0.7775749992500001
 O2 O 0.4153999985 0.472424999 0.972424999
 O2 O 0.3346000015 0.472424999 0.972424999
 O2 O 0.4153999985 0.27757499925 0.7775749992500001
 O2 O 0.4153999985 0.472424999 0.7775749992500001
 O2 O 0.3346000015 0.27757499925 0.972424999
 O2 O 0.4153999985 0.27757499925 0.972424999
 O2 O 0.3346000015 0.472424999 0.7775749992500001
 O2 O 0.27757499925 0.3346000015 0.7775749992500001
 O2 O 0.472424999 0.4153999985 0.972424999
 O2 O 0.472424999 0.3346000015 0.972424999
 O2 O 0.27757499925 0.4153999985 0.7775749992500001
 O2 O 0.27757499925 0.4153999985 0.972424999
 O2 O 0.472424999 0.3346000015 0.7775749992500001
 O2 O 0.472424999 0.4153999985 0.7775749992500001
 O2 O 0.27757499925 0.3346000015 0.972424999
 O3 O 0.25 0.32417500025 0.82417500025
 O3 O 0.25 0.32417500025 0.82417500025
 O3 O 0.25 0.42582499975 0.92582499975
 O3 O 0.25 0.42582499975 0.92582499975
 O3 O 0.25 0.42582499975 0.82417500025
 O3 O 0.25 0.42582499975 0.82417500025
 O3 O 0.25 0.32417500025 0.92582499975
 O3 O 0.25 0.32417500025 0.92582499975
 O3 O 0.32417500025 0.25 0.82417500025
 O3 O 0.32417500025 0.25 0.82417500025
 O3 O 0.42582499975 0.25 0.92582499975
 O3 O 0.42582499975 0.25 0.92582499975
 O3 O 0.32417500025 0.25 0.92582499975
 O3 O 0.32417500025 0.25 0.92582499975
 O3 O 0.42582499975 0.25 0.82417500025
 O3 O 0.42582499975 0.25 0.82417500025
 O3 O 0.32417500025 0.32417500025 0.75
 O3 O 0.32417500025 0.32417500025 0.75
 O3 O 0.42582499975 0.42582499975 0.75
 O3 O 0.42582499975 0.42582499975 0.75
 O3 O 0.42582499975 0.32417500025 0.75
 O3 O 0.42582499975 0.32417500025 0.75
 O3 O 0.32417500025 0.42582499975 0.75
 O3 O 0.32417500025 0.42582499975 0.75
 O2 O 0.472424999 0.27757499925 0.8346000015
 O2 O 0.27757498625 0.27757499925 0.8346000015
 O2 O 0.472424999 0.472424999 0.9153999985
 O2 O 0.27757498625 0.472424999 0.9153999985
 O2 O 0.472424999 0.472424999 0.8346000015
 O2 O 0.27757498625 0.472424999 0.8346000015
 O2 O 0.472424999 0.27757499925 0.9153999985
 O2 O 0.27757498625 0.27757499925 0.9153999985
 O2 O 0.3346000015 0.472424999 0.7775749992500001
 O2 O 0.3346000015 0.27757498625 0.7775749992500001
 O2 O 0.4153999985 0.472424999 0.972424999
 O2 O 0.4153999985 0.27757498625 0.972424999
 O2 O 0.3346000015 0.472424999 0.972424999
 O2 O 0.3346000015 0.27757498625 0.972424999
 O2 O 0.4153999985 0.472424999 0.7775749992500001
 O2 O 0.4153999985 0.27757498625 0.7775749992500001
 O2 O 0.27757499925 0.3346000015 0.972424999
 O2 O 0.27757499925 0.3346000015 0.77757498625
 O2 O 0.472424999 0.4153999985 0.972424999
 O2 O 0.472424999 0.4153999985 0.77757498625
 O2 O 0.472424999 0.3346000015 0.972424999
 O2 O 0.472424999 0.3346000015 0.77757498625
 O2 O 0.27757499925 0.4153999985 0.972424999
 O2 O 0.27757499925 0.4153999985 0.77757498625
 O2 O 0.27757499925 0.472424999 0.9153999985
 O2 O 0.27757499925 0.27757498625 0.9153999985
 O2 O 0.472424999 0.472424999 0.8346000015
 O2 O 0.472424999 0.27757498625 0.8346000015
 O2 O 0.472424999 0.472424999 0.9153999985
 O2 O 0.472424999 0.27757498625 0.9153999985
 O2 O 0.27757499925 0.472424999 0.8346000015
 O2 O 0.27757499925 0.27757498625 0.8346000015
 O2 O 0.472424999 0.3346000015 0.972424999
 O2 O 0.27757498625 0.3346000015 0.972424999
 O2 O 0.472424999 0.4153999985 0.7775749992500001
 O2 O 0.27757498625 0.4153999985 0.7775749992500001
 O2 O 0.472424999 0.3346000015 0.7775749992500001
 O2 O 0.27757498625 0.3346000015 0.7775749992500001
 O2 O 0.472424999 0.4153999985 0.972424999
 O2 O 0.27757498625 0.4153999985 0.972424999
 O2 O 0.3346000015 0.27757499925 0.972424999
 O2 O 0.3346000015 0.27757499925 0.77757498625
 O2 O 0.4153999985 0.472424999 0.972424999
 O2 O 0.4153999985 0.472424999 0.77757498625
 O2 O 0.3346000015 0.472424999 0.972424999
 O2 O 0.3346000015 0.472424999 0.77757498625
 O2 O 0.4153999985 0.27757499925 0.972424999
 O2 O 0.4153999985 0.27757499925 0.77757498625
 T1 Si 0.25 0.29557500025 0.84210000175
 T1 Si 0.25 0.29557500025 0.84210000175
 T1 Si 0.25 0.454425007 0.9079000054999999
 T1 Si 0.25 0.454425007 0.9079000054999999
 T1 Si 0.25 0.454425007 0.84210000175
 T1 Si 0.25 0.454425007 0.84210000175
 T1 Si 0.25 0.29557500025 0.9079000054999999
 T1 Si 0.25 0.29557500025 0.9079000054999999
 T1 Si 0.34210000175 0.25 0.7955750002499999
 T1 Si 0.34210000175 0.25 0.7955750002499999
 T1 Si 0.4079000055 0.25 0.954425007
 T1 Si 0.4079000055 0.25 0.954425007
 T1 Si 0.34210000175 0.25 0.954425007
 T1 Si 0.34210000175 0.25 0.954425007
 T1 Si 0.4079000055 0.25 0.7955750002499999
 T1 Si 0.4079000055 0.25 0.7955750002499999
 T1 Si 0.29557500025 0.34210000175 0.75
 T1 Si 0.29557500025 0.34210000175 0.75
 T1 Si 0.454425007 0.4079000055 0.75
 T1 Si 0.454425007 0.4079000055 0.75
 T1 Si 0.454425007 0.34210000175 0.75
 T1 Si 0.454425007 0.34210000175 0.75
 T1 Si 0.29557500025 0.4079000055 0.75
 T1 Si 0.29557500025 0.4079000055 0.75
 T1 Si 0.29557500025 0.25 0.9079000054999999
 T1 Si 0.29557500025 0.25 0.9079000054999999
 T1 Si 0.454425007 0.25 0.84210000175
 T1 Si 0.454425007 0.25 0.84210000175
 T1 Si 0.454425007 0.25 0.9079000054999999
 T1 Si 0.454425007 0.25 0.9079000054999999
 T1 Si 0.29557500025 0.25 0.84210000175
 T1 Si 0.29557500025 0.25 0.84210000175
 T1 Si 0.25 0.34210000175 0.954425007
 T1 Si 0.25 0.34210000175 0.954425007
 T1 Si 0.25 0.4079000055 0.7955750002499999
 T1 Si 0.25 0.4079000055 0.7955750002499999
 T1 Si 0.25 0.34210000175 0.7955750002499999
 T1 Si 0.25 0.34210000175 0.7955750002499999
 T1 Si 0.25 0.4079000055 0.954425007
 T1 Si 0.25 0.4079000055 0.954425007
 T1 Si 0.34210000175 0.29557500025 0.75
 T1 Si 0.34210000175 0.29557500025 0.75
 T1 Si 0.4079000055 0.454425007 0.75
 T1 Si 0.4079000055 0.454425007 0.75
 T1 Si 0.34210000175 0.454425007 0.75
 T1 Si 0.34210000175 0.454425007 0.75
 T1 Si 0.4079000055 0.29557500025 0.75
 T1 Si 0.4079000055 0.29557500025 0.75
 O1 O 0.5 0.30305000025 0.875
 O1 O 0.5 0.30305000025 0.875
 O1 O 0.5 0.4469500035 0.875
 O1 O 0.5 0.4469500035 0.875
 O1 O 0.625 0.25 0.8030500002500001
 O1 O 0.625 0.25 0.8030500002500001
 O1 O 0.625 0.25 0.9469500035
 O1 O 0.625 0.25 0.9469500035
 O1 O 0.5530500002500001 0.375 0.75
 O1 O 0.5530500002500001 0.375 0.75
 O1 O 0.6969500035 0.375 0.75
 O1 O 0.6969500035 0.375 0.75
 O1 O 0.5530500002500001 0.25 0.875
 O1 O 0.5530500002500001 0.25 0.875
 O1 O 0.6969500035 0.25 0.875
 O1 O 0.6969500035 0.25 0.875
 O1 O 0.5 0.375 0.9469500035
 O1 O 0.5 0.375 0.9469500035
 O1 O 0.5 0.375 0.8030500002500001
 O1 O 0.5 0.375 0.8030500002500001
 O1 O 0.625 0.30305000025 0.75
 O1 O 0.625 0.30305000025 0.75
 O1 O 0.625 0.4469500035 0.75
 O1 O 0.625 0.4469500035 0.75
 O2 O 0.5275749992500001 0.27757499925 0.8346000015
 O2 O 0.722424999 0.472424999 0.9153999985
 O2 O 0.722424999 0.472424999 0.8346000015
 O2 O 0.5275749992500001 0.27757499925 0.9153999985
 O2 O 0.722424999 0.27757499925 0.9153999985
 O2 O 0.5275749992500001 0.472424999 0.8346000015
 O2 O 0.5275749992500001 0.472424999 0.9153999985
 O2 O 0.722424999 0.27757499925 0.8346000015
 O2 O 0.5846000015 0.27757499925 0.7775749992500001
 O2 O 0.6653999985 0.472424999 0.972424999
 O2 O 0.5846000015 0.472424999 0.972424999
 O2 O 0.6653999985 0.27757499925 0.7775749992500001
 O2 O 0.6653999985 0.472424999 0.7775749992500001
 O2 O 0.5846000015 0.27757499925 0.972424999
 O2 O 0.6653999985 0.27757499925 0.972424999
 O2 O 0.5846000015 0.472424999 0.7775749992500001
 O2 O 0.5275749992500001 0.3346000015 0.7775749992500001
 O2 O 0.722424999 0.4153999985 0.972424999
 O2 O 0.722424999 0.3346000015 0.972424999
 O2 O 0.5275749992500001 0.4153999985 0.7775749992500001
 O2 O 0.5275749992500001 0.4153999985 0.972424999
 O2 O 0.722424999 0.3346000015 0.7775749992500001
 O2 O 0.722424999 0.4153999985 0.7775749992500001
 O2 O 0.5275749992500001 0.3346000015 0.972424999
 O3 O 0.5 0.32417500025 0.82417500025
 O3 O 0.5 0.32417500025 0.82417500025
 O3 O 0.5 0.42582499975 0.92582499975
 O3 O 0.5 0.42582499975 0.92582499975
 O3 O 0.5 0.42582499975 0.82417500025
 O3 O 0.5 0.42582499975 0.82417500025
 O3 O 0.5 0.32417500025 0.92582499975
 O3 O 0.5 0.32417500025 0.92582499975
 O3 O 0.57417500025 0.25 0.82417500025
 O3 O 0.57417500025 0.25 0.82417500025
 O3 O 0.67582499975 0.25 0.92582499975
 O3 O 0.67582499975 0.25 0.92582499975
 O3 O 0.57417500025 0.25 0.92582499975
 O3 O 0.57417500025 0.25 0.92582499975
 O3 O 0.67582499975 0.25 0.82417500025
 O3 O 0.67582499975 0.25 0.82417500025
 O3 O 0.57417500025 0.32417500025 0.75
 O3 O 0.57417500025 0.32417500025 0.75
 O3 O 0.67582499975 0.42582499975 0.75
 O3 O 0.67582499975 0.42582499975 0.75
 O3 O 0.67582499975 0.32417500025 0.75
 O3 O 0.67582499975 0.32417500025 0.75
 O3 O 0.57417500025 0.42582499975 0.75
 O3 O 0.57417500025 0.42582499975 0.75
 O2 O 0.722424999 0.27757499925 0.8346000015
 O2 O 0.52757498625 0.27757499925 0.8346000015
 O2 O 0.722424999 0.472424999 0.9153999985
 O2 O 0.52757498625 0.472424999 0.9153999985
 O2 O 0.722424999 0.472424999 0.8346000015
 O2 O 0.52757498625 0.472424999 0.8346000015
 O2 O 0.722424999 0.27757499925 0.9153999985
 O2 O 0.52757498625 0.27757499925 0.9153999985
 O2 O 0.5846000015 0.472424999 0.7775749992500001
 O2 O 0.5846000015 0.27757498625 0.7775749992500001
 O2 O 0.6653999985 0.472424999 0.972424999
 O2 O 0.6653999985 0.27757498625 0.972424999
 O2 O 0.5846000015 0.472424999 0.972424999
 O2 O 0.5846000015 0.27757498625 0.972424999
 O2 O 0.6653999985 0.472424999 0.7775749992500001
 O2 O 0.6653999985 0.27757498625 0.7775749992500001
 O2 O 0.5275749992500001 0.3346000015 0.972424999
 O2 O 0.5275749992500001 0.3346000015 0.77757498625
 O2 O 0.722424999 0.4153999985 0.972424999
 O2 O 0.722424999 0.4153999985 0.77757498625
 O2 O 0.722424999 0.3346000015 0.972424999
 O2 O 0.722424999 0.3346000015 0.77757498625
 O2 O 0.5275749992500001 0.4153999985 0.972424999
 O2 O 0.5275749992500001 0.4153999985 0.77757498625
 O2 O 0.5275749992500001 0.472424999 0.9153999985
 O2 O 0.5275749992500001 0.27757498625 0.9153999985
 O2 O 0.722424999 0.472424999 0.8346000015
 O2 O 0.722424999 0.27757498625 0.8346000015
 O2 O 0.722424999 0.472424999 0.9153999985
 O2 O 0.722424999 0.27757498625 0.9153999985
 O2 O 0.5275749992500001 0.472424999 0.8346000015
 O2 O 0.5275749992500001 0.27757498625 0.8346000015
 O2 O 0.722424999 0.3346000015 0.972424999
 O2 O 0.52757498625 0.3346000015 0.972424999
 O2 O 0.722424999 0.4153999985 0.7775749992500001
 O2 O 0.52757498625 0.4153999985 0.7775749992500001
 O2 O 0.722424999 0.3346000015 0.7775749992500001
 O2 O 0.52757498625 0.3346000015 0.7775749992500001
 O2 O 0.722424999 0.4153999985 0.972424999
 O2 O 0.52757498625 0.4153999985 0.972424999
 O2 O 0.5846000015 0.27757499925 0.972424999
 O2 O 0.5846000015 0.27757499925 0.77757498625
 O2 O 0.6653999985 0.472424999 0.972424999
 O2 O 0.6653999985 0.472424999 0.77757498625
 O2 O 0.5846000015 0.472424999 0.972424999
 O2 O 0.5846000015 0.472424999 0.77757498625
 O2 O 0.6653999985 0.27757499925 0.972424999
 O2 O 0.6653999985 0.27757499925 0.77757498625
 T1 Si 0.5 0.29557500025 0.84210000175
 T1 Si 0.5 0.29557500025 0.84210000175
 T1 Si 0.5 0.454425007 0.9079000054999999
 T1 Si 0.5 0.454425007 0.9079000054999999
 T1 Si 0.5 0.454425007 0.84210000175
 T1 Si 0.5 0.454425007 0.84210000175
 T1 Si 0.5 0.29557500025 0.9079000054999999
 T1 Si 0.5 0.29557500025 0.9079000054999999
 T1 Si 0.59210000175 0.25 0.7955750002499999
 T1 Si 0.59210000175 0.25 0.7955750002499999
 T1 Si 0.6579000054999999 0.25 0.954425007
 T1 Si 0.6579000054999999 0.25 0.954425007
 T1 Si 0.59210000175 0.25 0.954425007
 T1 Si 0.59210000175 0.25 0.954425007
 T1 Si 0.6579000054999999 0.25 0.7955750002499999
 T1 Si 0.6579000054999999 0.25 0.7955750002499999
 T1 Si 0.5455750002499999 0.34210000175 0.75
 T1 Si 0.5455750002499999 0.34210000175 0.75
 T1 Si 0.704425007 0.4079000055 0.75
 T1 Si 0.704425007 0.4079000055 0.75
 T1 Si 0.704425007 0.34210000175 0.75
 T1 Si 0.704425007 0.34210000175 0.75
 T1 Si 0.5455750002499999 0.4079000055 0.75
 T1 Si 0.5455750002499999 0.4079000055 0.75
 T1 Si 0.5455750002499999 0.25 0.9079000054999999
 T1 Si 0.5455750002499999 0.25 0.9079000054999999
 T1 Si 0.704425007 0.25 0.84210000175
 T1 Si 0.704425007 0.25 0.84210000175
 T1 Si 0.704425007 0.25 0.9079000054999999
 T1 Si 0.704425007 0.25 0.9079000054999999
 T1 Si 0.5455750002499999 0.25 0.84210000175
 T1 Si 0.5455750002499999 0.25 0.84210000175
 T1 Si 0.5 0.34210000175 0.954425007
 T1 Si 0.5 0.34210000175 0.954425007
 T1 Si 0.5 0.4079000055 0.7955750002499999
 T1 Si 0.5 0.4079000055 0.7955750002499999
 T1 Si 0.5 0.34210000175 0.7955750002499999
 T1 Si 0.5 0.34210000175 0.7955750002499999
 T1 Si 0.5 0.4079000055 0.954425007
 T1 Si 0.5 0.4079000055 0.954425007
 T1 Si 0.59210000175 0.29557500025 0.75
 T1 Si 0.59210000175 0.29557500025 0.75
 T1 Si 0.6579000054999999 0.454425007 0.75
 T1 Si 0.6579000054999999 0.454425007 0.75
 T1 Si 0.59210000175 0.454425007 0.75
 T1 Si 0.59210000175 0.454425007 0.75
 T1 Si 0.6579000054999999 0.29557500025 0.75
 T1 Si 0.6579000054999999 0.29557500025 0.75
 O1 O 0.75 0.30305000025 0.875
 O1 O 0.75 0.30305000025 0.875
 O1 O 0.75 0.4469500035 0.875
 O1 O 0.75 0.4469500035 0.875
 O1 O 0.875 0.25 0.8030500002500001
 O1 O 0.875 0.25 0.8030500002500001
 O1 O 0.875 0.25 0.9469500035
 O1 O 0.875 0.25 0.9469500035
 O1 O 0.8030500002500001 0.375 0.75
 O1 O 0.8030500002500001 0.375 0.75
 O1 O 0.9469500035 0.375 0.75
 O1 O 0.9469500035 0.375 0.75
 O1 O 0.8030500002500001 0.25 0.875
 O1 O 0.8030500002500001 0.25 0.875
 O1 O 0.9469500035 0.25 0.875
 O1 O 0.9469500035 0.25 0.875
 O1 O 0.75 0.375 0.9469500035
 O1 O 0.75 0.375 0.9469500035
 O1 O 0.75 0.375 0.8030500002500001
 O1 O 0.75 0.375 0.8030500002500001
 O1 O 0.875 0.30305000025 0.75
 O1 O 0.875 0.30305000025 0.75
 O1 O 0.875 0.4469500035 0.75
 O1 O 0.875 0.4469500035 0.75
 O2 O 0.7775749992500001 0.27757499925 0.8346000015
 O2 O 0.972424999 0.472424999 0.9153999985
 O2 O 0.972424999 0.472424999 0.8346000015
 O2 O 0.7775749992500001 0.27757499925 0.9153999985
 O2 O 0.972424999 0.27757499925 0.9153999985
 O2 O 0.7775749992500001 0.472424999 0.8346000015
 O2 O 0.7775749992500001 0.472424999 0.9153999985
 O2 O 0.972424999 0.27757499925 0.8346000015
 O2 O 0.8346000015 0.27757499925 0.7775749992500001
 O2 O 0.9153999985 0.472424999 0.972424999
 O2 O 0.8346000015 0.472424999 0.972424999
 O2 O 0.9153999985 0.27757499925 0.7775749992500001
 O2 O 0.9153999985 0.472424999 0.7775749992500001
 O2 O 0.8346000015 0.27757499925 0.972424999
 O2 O 0.9153999985 0.27757499925 0.972424999
 O2 O 0.8346000015 0.472424999 0.7775749992500001
 O2 O 0.7775749992500001 0.3346000015 0.7775749992500001
 O2 O 0.972424999 0.4153999985 0.972424999
 O2 O 0.972424999 0.3346000015 0.972424999
 O2 O 0.7775749992500001 0.4153999985 0.7775749992500001
 O2 O 0.7775749992500001 0.4153999985 0.972424999
 O2 O 0.972424999 0.3346000015 0.7775749992500001
 O2 O 0.972424999 0.4153999985 0.7775749992500001
 O2 O 0.7775749992500001 0.3346000015 0.972424999
 O3 O 0.75 0.32417500025 0.82417500025
 O3 O 0.75 0.32417500025 0.82417500025
 O3 O 0.75 0.42582499975 0.92582499975
 O3 O 0.75 0.42582499975 0.92582499975
 O3 O 0.75 0.42582499975 0.82417500025
 O3 O 0.75 0.42582499975 0.82417500025
 O3 O 0.75 0.32417500025 0.92582499975
 O3 O 0.75 0.32417500025 0.92582499975
 O3 O 0.82417500025 0.25 0.82417500025
 O3 O 0.82417500025 0.25 0.82417500025
 O3 O 0.92582499975 0.25 0.92582499975
 O3 O 0.92582499975 0.25 0.92582499975
 O3 O 0.82417500025 0.25 0.92582499975
 O3 O 0.82417500025 0.25 0.92582499975
 O3 O 0.92582499975 0.25 0.82417500025
 O3 O 0.92582499975 0.25 0.82417500025
 O3 O 0.82417500025 0.32417500025 0.75
 O3 O 0.82417500025 0.32417500025 0.75
 O3 O 0.92582499975 0.42582499975 0.75
 O3 O 0.92582499975 0.42582499975 0.75
 O3 O 0.92582499975 0.32417500025 0.75
 O3 O 0.92582499975 0.32417500025 0.75
 O3 O 0.82417500025 0.42582499975 0.75
 O3 O 0.82417500025 0.42582499975 0.75
 O2 O 0.972424999 0.27757499925 0.8346000015
 O2 O 0.77757498625 0.27757499925 0.8346000015
 O2 O 0.972424999 0.472424999 0.9153999985
 O2 O 0.77757498625 0.472424999 0.9153999985
 O2 O 0.972424999 0.472424999 0.8346000015
 O2 O 0.77757498625 0.472424999 0.8346000015
 O2 O 0.972424999 0.27757499925 0.9153999985
 O2 O 0.77757498625 0.27757499925 0.9153999985
 O2 O 0.8346000015 0.472424999 0.7775749992500001
 O2 O 0.8346000015 0.27757498625 0.7775749992500001
 O2 O 0.9153999985 0.472424999 0.972424999
 O2 O 0.9153999985 0.27757498625 0.972424999
 O2 O 0.8346000015 0.472424999 0.972424999
 O2 O 0.8346000015 0.27757498625 0.972424999
 O2 O 0.9153999985 0.472424999 0.7775749992500001
 O2 O 0.9153999985 0.27757498625 0.7775749992500001
 O2 O 0.7775749992500001 0.3346000015 0.972424999
 O2 O 0.7775749992500001 0.3346000015 0.77757498625
 O2 O 0.972424999 0.4153999985 0.972424999
 O2 O 0.972424999 0.4153999985 0.77757498625
 O2 O 0.972424999 0.3346000015 0.972424999
 O2 O 0.972424999 0.3346000015 0.77757498625
 O2 O 0.7775749992500001 0.4153999985 0.972424999
 O2 O 0.7775749992500001 0.4153999985 0.77757498625
 O2 O 0.7775749992500001 0.472424999 0.9153999985
 O2 O 0.7775749992500001 0.27757498625 0.9153999985
 O2 O 0.972424999 0.472424999 0.8346000015
 O2 O 0.972424999 0.27757498625 0.8346000015
 O2 O 0.972424999 0.472424999 0.9153999985
 O2 O 0.972424999 0.27757498625 0.9153999985
 O2 O 0.7775749992500001 0.472424999 0.8346000015
 O2 O 0.7775749992500001 0.27757498625 0.8346000015
 O2 O 0.972424999 0.3346000015 0.972424999
 O2 O 0.77757498625 0.3346000015 0.972424999
 O2 O 0.972424999 0.4153999985 0.7775749992500001
 O2 O 0.77757498625 0.4153999985 0.7775749992500001
 O2 O 0.972424999 0.3346000015 0.7775749992500001
 O2 O 0.77757498625 0.3346000015 0.7775749992500001
 O2 O 0.972424999 0.4153999985 0.972424999
 O2 O 0.77757498625 0.4153999985 0.972424999
 O2 O 0.8346000015 0.27757499925 0.972424999
 O2 O 0.8346000015 0.27757499925 0.77757498625
 O2 O 0.9153999985 0.472424999 0.972424999
 O2 O 0.9153999985 0.472424999 0.77757498625
 O2 O 0.8346000015 0.472424999 0.972424999
 O2 O 0.8346000015 0.472424999 0.77757498625
 O2 O 0.9153999985 0.27757499925 0.972424999
 O2 O 0.9153999985 0.27757499925 0.77757498625
 T1 Si 0.75 0.29557500025 0.84210000175
 T1 Si 0.75 0.29557500025 0.84210000175
 T1 Si 0.75 0.454425007 0.9079000054999999
 T1 Si 0.75 0.454425007 0.9079000054999999
 T1 Si 0.75 0.454425007 0.84210000175
 T1 Si 0.75 0.454425007 0.84210000175
 T1 Si 0.75 0.29557500025 0.9079000054999999
 T1 Si 0.75 0.29557500025 0.9079000054999999
 T1 Si 0.84210000175 0.25 0.7955750002499999
 T1 Si 0.84210000175 0.25 0.7955750002499999
 T1 Si 0.9079000054999999 0.25 0.954425007
 T1 Si 0.9079000054999999 0.25 0.954425007
 T1 Si 0.84210000175 0.25 0.954425007
 T1 Si 0.84210000175 0.25 0.954425007
 T1 Si 0.9079000054999999 0.25 0.7955750002499999
 T1 Si 0.9079000054999999 0.25 0.7955750002499999
 T1 Si 0.7955750002499999 0.34210000175 0.75
 T1 Si 0.7955750002499999 0.34210000175 0.75
 T1 Si 0.954425007 0.4079000055 0.75
 T1 Si 0.954425007 0.4079000055 0.75
 T1 Si 0.954425007 0.34210000175 0.75
 T1 Si 0.954425007 0.34210000175 0.75
 T1 Si 0.7955750002499999 0.4079000055 0.75
 T1 Si 0.7955750002499999 0.4079000055 0.75
 T1 Si 0.7955750002499999 0.25 0.9079000054999999
 T1 Si 0.7955750002499999 0.25 0.9079000054999999
 T1 Si 0.954425007 0.25 0.84210000175
 T1 Si 0.954425007 0.25 0.84210000175
 T1 Si 0.954425007 0.25 0.9079000054999999
 T1 Si 0.954425007 0.25 0.9079000054999999
 T1 Si 0.7955750002499999 0.25 0.84210000175
 T1 Si 0.7955750002499999 0.25 0.84210000175
 T1 Si 0.75 0.34210000175 0.954425007
 T1 Si 0.75 0.34210000175 0.954425007
 T1 Si 0.75 0.4079000055 0.7955750002499999
 T1 Si 0.75 0.4079000055 0.7955750002499999
 T1 Si 0.75 0.34210000175 0.7955750002499999
 T1 Si 0.75 0.34210000175 0.7955750002499999
 T1 Si 0.75 0.4079000055 0.954425007
 T1 Si 0.75 0.4079000055 0.954425007
 T1 Si 0.84210000175 0.29557500025 0.75
 T1 Si 0.84210000175 0.29557500025 0.75
 T1 Si 0.9079000054999999 0.454425007 0.75
 T1 Si 0.9079000054999999 0.454425007 0.75
 T1 Si 0.84210000175 0.454425007 0.75
 T1 Si 0.84210000175 0.454425007 0.75
 T1 Si 0.9079000054999999 0.29557500025 0.75
 T1 Si 0.9079000054999999 0.29557500025 0.75
 O1 O 0.0 0.5530500002500001 0.875
 O1 O 0.0 0.5530500002500001 0.875
 O1 O 0.0 0.6969500035 0.875
 O1 O 0.0 0.6969500035 0.875
 O1 O 0.125 0.5 0.8030500002500001
 O1 O 0.125 0.5 0.8030500002500001
 O1 O 0.125 0.5 0.9469500035
 O1 O 0.125 0.5 0.9469500035
 O1 O 0.05305000025 0.625 0.75
 O1 O 0.05305000025 0.625 0.75
 O1 O 0.1969500035 0.625 0.75
 O1 O 0.1969500035 0.625 0.75
 O1 O 0.05305000025 0.5 0.875
 O1 O 0.05305000025 0.5 0.875
 O1 O 0.1969500035 0.5 0.875
 O1 O 0.1969500035 0.5 0.875
 O1 O 0.0 0.625 0.9469500035
 O1 O 0.0 0.625 0.9469500035
 O1 O 0.0 0.625 0.8030500002500001
 O1 O 0.0 0.625 0.8030500002500001
 O1 O 0.125 0.5530500002500001 0.75
 O1 O 0.125 0.5530500002500001 0.75
 O1 O 0.125 0.6969500035 0.75
 O1 O 0.125 0.6969500035 0.75
 O2 O 0.02757499925 0.5275749992500001 0.8346000015
 O2 O 0.222424999 0.722424999 0.9153999985
 O2 O 0.222424999 0.722424999 0.8346000015
 O2 O 0.02757499925 0.5275749992500001 0.9153999985
 O2 O 0.222424999 0.5275749992500001 0.9153999985
 O2 O 0.02757499925 0.722424999 0.8346000015
 O2 O 0.02757499925 0.722424999 0.9153999985
 O2 O 0.222424999 0.5275749992500001 0.8346000015
 O2 O 0.0846000015 0.5275749992500001 0.7775749992500001
 O2 O 0.1653999985 0.722424999 0.972424999
 O2 O 0.0846000015 0.722424999 0.972424999
 O2 O 0.1653999985 0.5275749992500001 0.7775749992500001
 O2 O 0.1653999985 0.722424999 0.7775749992500001
 O2 O 0.0846000015 0.5275749992500001 0.972424999
 O2 O 0.1653999985 0.5275749992500001 0.972424999
 O2 O 0.0846000015 0.722424999 0.7775749992500001
 O2 O 0.02757499925 0.5846000015 0.7775749992500001
 O2 O 0.222424999 0.6653999985 0.972424999
 O2 O 0.222424999 0.5846000015 0.972424999
 O2 O 0.02757499925 0.6653999985 0.7775749992500001
 O2 O 0.02757499925 0.6653999985 0.972424999
 O2 O 0.222424999 0.5846000015 0.7775749992500001
 O2 O 0.222424999 0.6653999985 0.7775749992500001
 O2 O 0.02757499925 0.5846000015 0.972424999
 O3 O 0.0 0.57417500025 0.82417500025
 O3 O 0.0 0.57417500025 0.82417500025
 O3 O 0.0 0.67582499975 0.92582499975
 O3 O 0.0 0.67582499975 0.92582499975
 O3 O 0.0 0.67582499975 0.82417500025
 O3 O 0.0 0.67582499975 0.82417500025
 O3 O 0.0 0.57417500025 0.92582499975
 O3 O 0.0 0.57417500025 0.92582499975
 O3 O 0.07417500025 0.5 0.82417500025
 O3 O 0.07417500025 0.5 0.82417500025
 O3 O 0.17582499975 0.5 0.92582499975
 O3 O 0.17582499975 0.5 0.92582499975
 O3 O 0.07417500025 0.5 0.92582499975
 O3 O 0.07417500025 0.5 0.92582499975
 O3 O 0.17582499975 0.5 0.82417500025
 O3 O 0.17582499975 0.5 0.82417500025
 O3 O 0.07417500025 0.57417500025 0.75
 O3 O 0.07417500025 0.57417500025 0.75
 O3 O 0.17582499975 0.67582499975 0.75
 O3 O 0.17582499975 0.67582499975 0.75
 O3 O 0.17582499975 0.57417500025 0.75
 O3 O 0.17582499975 0.57417500025 0.75
 O3 O 0.07417500025 0.67582499975 0.75
 O3 O 0.07417500025 0.67582499975 0.75
 O2 O 0.222424999 0.5275749992500001 0.8346000015
 O2 O 0.02757498625 0.5275749992500001 0.8346000015
 O2 O 0.222424999 0.722424999 0.9153999985
 O2 O 0.02757498625 0.722424999 0.9153999985
 O2 O 0.222424999 0.722424999 0.8346000015
 O2 O 0.02757498625 0.722424999 0.8346000015
 O2 O 0.222424999 0.5275749992500001 0.9153999985
 O2 O 0.02757498625 0.5275749992500001 0.9153999985
 O2 O 0.0846000015 0.722424999 0.7775749992500001
 O2 O 0.0846000015 0.52757498625 0.7775749992500001
 O2 O 0.1653999985 0.722424999 0.972424999
 O2 O 0.1653999985 0.52757498625 0.972424999
 O2 O 0.0846000015 0.722424999 0.972424999
 O2 O 0.0846000015 0.52757498625 0.972424999
 O2 O 0.1653999985 0.722424999 0.7775749992500001
 O2 O 0.1653999985 0.52757498625 0.7775749992500001
 O2 O 0.02757499925 0.5846000015 0.972424999
 O2 O 0.02757499925 0.5846000015 0.77757498625
 O2 O 0.222424999 0.6653999985 0.972424999
 O2 O 0.222424999 0.6653999985 0.77757498625
 O2 O 0.222424999 0.5846000015 0.972424999
 O2 O 0.222424999 0.5846000015 0.77757498625
 O2 O 0.02757499925 0.6653999985 0.972424999
 O2 O 0.02757499925 0.6653999985 0.77757498625
 O2 O 0.02757499925 0.722424999 0.9153999985
 O2 O 0.02757499925 0.52757498625 0.9153999985
 O2 O 0.222424999 0.722424999 0.8346000015
 O2 O 0.222424999 0.52757498625 0.8346000015
 O2 O 0.222424999 0.722424999 0.9153999985
 O2 O 0.222424999 0.52757498625 0.9153999985
 O2 O 0.02757499925 0.722424999 0.8346000015
 O2 O 0.02757499925 0.52757498625 0.8346000015
 O2 O 0.222424999 0.5846000015 0.972424999
 O2 O 0.02757498625 0.5846000015 0.972424999
 O2 O 0.222424999 0.6653999985 0.7775749992500001
 O2 O 0.02757498625 0.6653999985 0.7775749992500001
 O2 O 0.222424999 0.5846000015 0.7775749992500001
 O2 O 0.02757498625 0.5846000015 0.7775749992500001
 O2 O 0.222424999 0.6653999985 0.972424999
 O2 O 0.02757498625 0.6653999985 0.972424999
 O2 O 0.0846000015 0.5275749992500001 0.972424999
 O2 O 0.0846000015 0.5275749992500001 0.77757498625
 O2 O 0.1653999985 0.722424999 0.972424999
 O2 O 0.1653999985 0.722424999 0.77757498625
 O2 O 0.0846000015 0.722424999 0.972424999
 O2 O 0.0846000015 0.722424999 0.77757498625
 O2 O 0.1653999985 0.5275749992500001 0.972424999
 O2 O 0.1653999985 0.5275749992500001 0.77757498625
 T1 Si 0.0 0.5455750002499999 0.84210000175
 T1 Si 0.0 0.5455750002499999 0.84210000175
 T1 Si 0.0 0.704425007 0.9079000054999999
 T1 Si 0.0 0.704425007 0.9079000054999999
 T1 Si 0.0 0.704425007 0.84210000175
 T1 Si 0.0 0.704425007 0.84210000175
 T1 Si 0.0 0.5455750002499999 0.9079000054999999
 T1 Si 0.0 0.5455750002499999 0.9079000054999999
 T1 Si 0.09210000175 0.5 0.7955750002499999
 T1 Si 0.09210000175 0.5 0.7955750002499999
 T1 Si 0.1579000055 0.5 0.954425007
 T1 Si 0.1579000055 0.5 0.954425007
 T1 Si 0.09210000175 0.5 0.954425007
 T1 Si 0.09210000175 0.5 0.954425007
 T1 Si 0.1579000055 0.5 0.7955750002499999
 T1 Si 0.1579000055 0.5 0.7955750002499999
 T1 Si 0.04557500025 0.59210000175 0.75
 T1 Si 0.04557500025 0.59210000175 0.75
 T1 Si 0.204425007 0.6579000054999999 0.75
 T1 Si 0.204425007 0.6579000054999999 0.75
 T1 Si 0.204425007 0.59210000175 0.75
 T1 Si 0.204425007 0.59210000175 0.75
 T1 Si 0.04557500025 0.6579000054999999 0.75
 T1 Si 0.04557500025 0.6579000054999999 0.75
 T1 Si 0.04557500025 0.5 0.9079000054999999
 T1 Si 0.04557500025 0.5 0.9079000054999999
 T1 Si 0.204425007 0.5 0.84210000175
 T1 Si 0.204425007 0.5 0.84210000175
 T1 Si 0.204425007 0.5 0.9079000054999999
 T1 Si 0.204425007 0.5 0.9079000054999999
 T1 Si 0.04557500025 0.5 0.84210000175
 T1 Si 0.04557500025 0.5 0.84210000175
 T1 Si 0.0 0.59210000175 0.954425007
 T1 Si 0.0 0.59210000175 0.954425007
 T1 Si 0.0 0.6579000054999999 0.7955750002499999
 T1 Si 0.0 0.6579000054999999 0.7955750002499999
 T1 Si 0.0 0.59210000175 0.7955750002499999
 T1 Si 0.0 0.59210000175 0.7955750002499999
 T1 Si 0.0 0.6579000054999999 0.954425007
 T1 Si 0.0 0.6579000054999999 0.954425007
 T1 Si 0.09210000175 0.5455750002499999 0.75
 T1 Si 0.09210000175 0.5455750002499999 0.75
 T1 Si 0.1579000055 0.704425007 0.75
 T1 Si 0.1579000055 0.704425007 0.75
 T1 Si 0.09210000175 0.704425007 0.75
 T1 Si 0.09210000175 0.704425007 0.75
 T1 Si 0.1579000055 0.5455750002499999 0.75
 T1 Si 0.1579000055 0.5455750002499999 0.75
 O1 O 0.25 0.5530500002500001 0.875
 O1 O 0.25 0.5530500002500001 0.875
 O1 O 0.25 0.6969500035 0.875
 O1 O 0.25 0.6969500035 0.875
 O1 O 0.375 0.5 0.8030500002500001
 O1 O 0.375 0.5 0.8030500002500001
 O1 O 0.375 0.5 0.9469500035
 O1 O 0.375 0.5 0.9469500035
 O1 O 0.30305000025 0.625 0.75
 O1 O 0.30305000025 0.625 0.75
 O1 O 0.4469500035 0.625 0.75
 O1 O 0.4469500035 0.625 0.75
 O1 O 0.30305000025 0.5 0.875
 O1 O 0.30305000025 0.5 0.875
 O1 O 0.4469500035 0.5 0.875
 O1 O 0.4469500035 0.5 0.875
 O1 O 0.25 0.625 0.9469500035
 O1 O 0.25 0.625 0.9469500035
 O1 O 0.25 0.625 0.8030500002500001
 O1 O 0.25 0.625 0.8030500002500001
 O1 O 0.375 0.5530500002500001 0.75
 O1 O 0.375 0.5530500002500001 0.75
 O1 O 0.375 0.6969500035 0.75
 O1 O 0.375 0.6969500035 0.75
 O2 O 0.27757499925 0.5275749992500001 0.8346000015
 O2 O 0.472424999 0.722424999 0.9153999985
 O2 O 0.472424999 0.722424999 0.8346000015
 O2 O 0.27757499925 0.5275749992500001 0.9153999985
 O2 O 0.472424999 0.5275749992500001 0.9153999985
 O2 O 0.27757499925 0.722424999 0.8346000015
 O2 O 0.27757499925 0.722424999 0.9153999985
 O2 O 0.472424999 0.5275749992500001 0.8346000015
 O2 O 0.3346000015 0.5275749992500001 0.7775749992500001
 O2 O 0.4153999985 0.722424999 0.972424999
 O2 O 0.3346000015 0.722424999 0.972424999
 O2 O 0.4153999985 0.5275749992500001 0.7775749992500001
 O2 O 0.4153999985 0.722424999 0.7775749992500001
 O2 O 0.3346000015 0.5275749992500001 0.972424999
 O2 O 0.4153999985 0.5275749992500001 0.972424999
 O2 O 0.3346000015 0.722424999 0.7775749992500001
 O2 O 0.27757499925 0.5846000015 0.7775749992500001
 O2 O 0.472424999 0.6653999985 0.972424999
 O2 O 0.472424999 0.5846000015 0.972424999
 O2 O 0.27757499925 0.6653999985 0.7775749992500001
 O2 O 0.27757499925 0.6653999985 0.972424999
 O2 O 0.472424999 0.5846000015 0.7775749992500001
 O2 O 0.472424999 0.6653999985 0.7775749992500001
 O2 O 0.27757499925 0.5846000015 0.972424999
 O3 O 0.25 0.57417500025 0.82417500025
 O3 O 0.25 0.57417500025 0.82417500025
 O3 O 0.25 0.67582499975 0.92582499975
 O3 O 0.25 0.67582499975 0.92582499975
 O3 O 0.25 0.67582499975 0.82417500025
 O3 O 0.25 0.67582499975 0.82417500025
 O3 O 0.25 0.57417500025 0.92582499975
 O3 O 0.25 0.57417500025 0.92582499975
 O3 O 0.32417500025 0.5 0.82417500025
 O3 O 0.32417500025 0.5 0.82417500025
 O3 O 0.42582499975 0.5 0.92582499975
 O3 O 0.42582499975 0.5 0.92582499975
 O3 O 0.32417500025 0.5 0.92582499975
 O3 O 0.32417500025 0.5 0.92582499975
 O3 O 0.42582499975 0.5 0.82417500025
 O3 O 0.42582499975 0.5 0.82417500025
 O3 O 0.32417500025 0.57417500025 0.75
 O3 O 0.32417500025 0.57417500025 0.75
 O3 O 0.42582499975 0.67582499975 0.75
 O3 O 0.42582499975 0.67582499975 0.75
 O3 O 0.42582499975 0.57417500025 0.75
 O3 O 0.42582499975 0.57417500025 0.75
 O3 O 0.32417500025 0.67582499975 0.75
 O3 O 0.32417500025 0.67582499975 0.75
 O2 O 0.472424999 0.5275749992500001 0.8346000015
 O2 O 0.27757498625 0.5275749992500001 0.8346000015
 O2 O 0.472424999 0.722424999 0.9153999985
 O2 O 0.27757498625 0.722424999 0.9153999985
 O2 O 0.472424999 0.722424999 0.8346000015
 O2 O 0.27757498625 0.722424999 0.8346000015
 O2 O 0.472424999 0.5275749992500001 0.9153999985
 O2 O 0.27757498625 0.5275749992500001 0.9153999985
 O2 O 0.3346000015 0.722424999 0.7775749992500001
 O2 O 0.3346000015 0.52757498625 0.7775749992500001
 O2 O 0.4153999985 0.722424999 0.972424999
 O2 O 0.4153999985 0.52757498625 0.972424999
 O2 O 0.3346000015 0.722424999 0.972424999
 O2 O 0.3346000015 0.52757498625 0.972424999
 O2 O 0.4153999985 0.722424999 0.7775749992500001
 O2 O 0.4153999985 0.52757498625 0.7775749992500001
 O2 O 0.27757499925 0.5846000015 0.972424999
 O2 O 0.27757499925 0.5846000015 0.77757498625
 O2 O 0.472424999 0.6653999985 0.972424999
 O2 O 0.472424999 0.6653999985 0.77757498625
 O2 O 0.472424999 0.5846000015 0.972424999
 O2 O 0.472424999 0.5846000015 0.77757498625
 O2 O 0.27757499925 0.6653999985 0.972424999
 O2 O 0.27757499925 0.6653999985 0.77757498625
 O2 O 0.27757499925 0.722424999 0.9153999985
 O2 O 0.27757499925 0.52757498625 0.9153999985
 O2 O 0.472424999 0.722424999 0.8346000015
 O2 O 0.472424999 0.52757498625 0.8346000015
 O2 O 0.472424999 0.722424999 0.9153999985
 O2 O 0.472424999 0.52757498625 0.9153999985
 O2 O 0.27757499925 0.722424999 0.8346000015
 O2 O 0.27757499925 0.52757498625 0.8346000015
 O2 O 0.472424999 0.5846000015 0.972424999
 O2 O 0.27757498625 0.5846000015 0.972424999
 O2 O 0.472424999 0.6653999985 0.7775749992500001
 O2 O 0.27757498625 0.6653999985 0.7775749992500001
 O2 O 0.472424999 0.5846000015 0.7775749992500001
 O2 O 0.27757498625 0.5846000015 0.7775749992500001
 O2 O 0.472424999 0.6653999985 0.972424999
 O2 O 0.27757498625 0.6653999985 0.972424999
 O2 O 0.3346000015 0.5275749992500001 0.972424999
 O2 O 0.3346000015 0.5275749992500001 0.77757498625
 O2 O 0.4153999985 0.722424999 0.972424999
 O2 O 0.4153999985 0.722424999 0.77757498625
 O2 O 0.3346000015 0.722424999 0.972424999
 O2 O 0.3346000015 0.722424999 0.77757498625
 O2 O 0.4153999985 0.5275749992500001 0.972424999
 O2 O 0.4153999985 0.5275749992500001 0.77757498625
 T1 Si 0.25 0.5455750002499999 0.84210000175
 T1 Si 0.25 0.5455750002499999 0.84210000175
 T1 Si 0.25 0.704425007 0.9079000054999999
 T1 Si 0.25 0.704425007 0.9079000054999999
 T1 Si 0.25 0.704425007 0.84210000175
 T1 Si 0.25 0.704425007 0.84210000175
 T1 Si 0.25 0.5455750002499999 0.9079000054999999
 T1 Si 0.25 0.5455750002499999 0.9079000054999999
 T1 Si 0.34210000175 0.5 0.7955750002499999
 T1 Si 0.34210000175 0.5 0.7955750002499999
 T1 Si 0.4079000055 0.5 0.954425007
 T1 Si 0.4079000055 0.5 0.954425007
 T1 Si 0.34210000175 0.5 0.954425007
 T1 Si 0.34210000175 0.5 0.954425007
 T1 Si 0.4079000055 0.5 0.7955750002499999
 T1 Si 0.4079000055 0.5 0.7955750002499999
 T1 Si 0.29557500025 0.59210000175 0.75
 T1 Si 0.29557500025 0.59210000175 0.75
 T1 Si 0.454425007 0.6579000054999999 0.75
 T1 Si 0.454425007 0.6579000054999999 0.75
 T1 Si 0.454425007 0.59210000175 0.75
 T1 Si 0.454425007 0.59210000175 0.75
 T1 Si 0.29557500025 0.6579000054999999 0.75
 T1 Si 0.29557500025 0.6579000054999999 0.75
 T1 Si 0.29557500025 0.5 0.9079000054999999
 T1 Si 0.29557500025 0.5 0.9079000054999999
 T1 Si 0.454425007 0.5 0.84210000175
 T1 Si 0.454425007 0.5 0.84210000175
 T1 Si 0.454425007 0.5 0.9079000054999999
 T1 Si 0.454425007 0.5 0.9079000054999999
 T1 Si 0.29557500025 0.5 0.84210000175
 T1 Si 0.29557500025 0.5 0.84210000175
 T1 Si 0.25 0.59210000175 0.954425007
 T1 Si 0.25 0.59210000175 0.954425007
 T1 Si 0.25 0.6579000054999999 0.7955750002499999
 T1 Si 0.25 0.6579000054999999 0.7955750002499999
 T1 Si 0.25 0.59210000175 0.7955750002499999
 T1 Si 0.25 0.59210000175 0.7955750002499999
 T1 Si 0.25 0.6579000054999999 0.954425007
 T1 Si 0.25 0.6579000054999999 0.954425007
 T1 Si 0.34210000175 0.5455750002499999 0.75
 T1 Si 0.34210000175 0.5455750002499999 0.75
 T1 Si 0.4079000055 0.704425007 0.75
 T1 Si 0.4079000055 0.704425007 0.75
 T1 Si 0.34210000175 0.704425007 0.75
 T1 Si 0.34210000175 0.704425007 0.75
 T1 Si 0.4079000055 0.5455750002499999 0.75
 T1 Si 0.4079000055 0.5455750002499999 0.75
 O1 O 0.5 0.5530500002500001 0.875
 O1 O 0.5 0.5530500002500001 0.875
 O1 O 0.5 0.6969500035 0.875
 O1 O 0.5 0.6969500035 0.875
 O1 O 0.625 0.5 0.8030500002500001
 O1 O 0.625 0.5 0.8030500002500001
 O1 O 0.625 0.5 0.9469500035
 O1 O 0.625 0.5 0.9469500035
 O1 O 0.5530500002500001 0.625 0.75
 O1 O 0.5530500002500001 0.625 0.75
 O1 O 0.6969500035 0.625 0.75
 O1 O 0.6969500035 0.625 0.75
 O1 O 0.5530500002500001 0.5 0.875
 O1 O 0.5530500002500001 0.5 0.875
 O1 O 0.6969500035 0.5 0.875
 O1 O 0.6969500035 0.5 0.875
 O1 O 0.5 0.625 0.9469500035
 O1 O 0.5 0.625 0.9469500035
 O1 O 0.5 0.625 0.8030500002500001
 O1 O 0.5 0.625 0.8030500002500001
 O1 O 0.625 0.5530500002500001 0.75
 O1 O 0.625 0.5530500002500001 0.75
 O1 O 0.625 0.6969500035 0.75
 O1 O 0.625 0.6969500035 0.75
 O2 O 0.5275749992500001 0.5275749992500001 0.8346000015
 O2 O 0.722424999 0.722424999 0.9153999985
 O2 O 0.722424999 0.722424999 0.8346000015
 O2 O 0.5275749992500001 0.5275749992500001 0.9153999985
 O2 O 0.722424999 0.5275749992500001 0.9153999985
 O2 O 0.5275749992500001 0.722424999 0.8346000015
 O2 O 0.5275749992500001 0.722424999 0.9153999985
 O2 O 0.722424999 0.5275749992500001 0.8346000015
 O2 O 0.5846000015 0.5275749992500001 0.7775749992500001
 O2 O 0.6653999985 0.722424999 0.972424999
 O2 O 0.5846000015 0.722424999 0.972424999
 O2 O 0.6653999985 0.5275749992500001 0.7775749992500001
 O2 O 0.6653999985 0.722424999 0.7775749992500001
 O2 O 0.5846000015 0.5275749992500001 0.972424999
 O2 O 0.6653999985 0.5275749992500001 0.972424999
 O2 O 0.5846000015 0.722424999 0.7775749992500001
 O2 O 0.5275749992500001 0.5846000015 0.7775749992500001
 O2 O 0.722424999 0.6653999985 0.972424999
 O2 O 0.722424999 0.5846000015 0.972424999
 O2 O 0.5275749992500001 0.6653999985 0.7775749992500001
 O2 O 0.5275749992500001 0.6653999985 0.972424999
 O2 O 0.722424999 0.5846000015 0.7775749992500001
 O2 O 0.722424999 0.6653999985 0.7775749992500001
 O2 O 0.5275749992500001 0.5846000015 0.972424999
 O3 O 0.5 0.57417500025 0.82417500025
 O3 O 0.5 0.57417500025 0.82417500025
 O3 O 0.5 0.67582499975 0.92582499975
 O3 O 0.5 0.67582499975 0.92582499975
 O3 O 0.5 0.67582499975 0.82417500025
 O3 O 0.5 0.67582499975 0.82417500025
 O3 O 0.5 0.57417500025 0.92582499975
 O3 O 0.5 0.57417500025 0.92582499975
 O3 O 0.57417500025 0.5 0.82417500025
 O3 O 0.57417500025 0.5 0.82417500025
 O3 O 0.67582499975 0.5 0.92582499975
 O3 O 0.67582499975 0.5 0.92582499975
 O3 O 0.57417500025 0.5 0.92582499975
 O3 O 0.57417500025 0.5 0.92582499975
 O3 O 0.67582499975 0.5 0.82417500025
 O3 O 0.67582499975 0.5 0.82417500025
 O3 O 0.57417500025 0.57417500025 0.75
 O3 O 0.57417500025 0.57417500025 0.75
 O3 O 0.67582499975 0.67582499975 0.75
 O3 O 0.67582499975 0.67582499975 0.75
 O3 O 0.67582499975 0.57417500025 0.75
 O3 O 0.67582499975 0.57417500025 0.75
 O3 O 0.57417500025 0.67582499975 0.75
 O3 O 0.57417500025 0.67582499975 0.75
 O2 O 0.722424999 0.5275749992500001 0.8346000015
 O2 O 0.52757498625 0.5275749992500001 0.8346000015
 O2 O 0.722424999 0.722424999 0.9153999985
 O2 O 0.52757498625 0.722424999 0.9153999985
 O2 O 0.722424999 0.722424999 0.8346000015
 O2 O 0.52757498625 0.722424999 0.8346000015
 O2 O 0.722424999 0.5275749992500001 0.9153999985
 O2 O 0.52757498625 0.5275749992500001 0.9153999985
 O2 O 0.5846000015 0.722424999 0.7775749992500001
 O2 O 0.5846000015 0.52757498625 0.7775749992500001
 O2 O 0.6653999985 0.722424999 0.972424999
 O2 O 0.6653999985 0.52757498625 0.972424999
 O2 O 0.5846000015 0.722424999 0.972424999
 O2 O 0.5846000015 0.52757498625 0.972424999
 O2 O 0.6653999985 0.722424999 0.7775749992500001
 O2 O 0.6653999985 0.52757498625 0.7775749992500001
 O2 O 0.5275749992500001 0.5846000015 0.972424999
 O2 O 0.5275749992500001 0.5846000015 0.77757498625
 O2 O 0.722424999 0.6653999985 0.972424999
 O2 O 0.722424999 0.6653999985 0.77757498625
 O2 O 0.722424999 0.5846000015 0.972424999
 O2 O 0.722424999 0.5846000015 0.77757498625
 O2 O 0.5275749992500001 0.6653999985 0.972424999
 O2 O 0.5275749992500001 0.6653999985 0.77757498625
 O2 O 0.5275749992500001 0.722424999 0.9153999985
 O2 O 0.5275749992500001 0.52757498625 0.9153999985
 O2 O 0.722424999 0.722424999 0.8346000015
 O2 O 0.722424999 0.52757498625 0.8346000015
 O2 O 0.722424999 0.722424999 0.9153999985
 O2 O 0.722424999 0.52757498625 0.9153999985
 O2 O 0.5275749992500001 0.722424999 0.8346000015
 O2 O 0.5275749992500001 0.52757498625 0.8346000015
 O2 O 0.722424999 0.5846000015 0.972424999
 O2 O 0.52757498625 0.5846000015 0.972424999
 O2 O 0.722424999 0.6653999985 0.7775749992500001
 O2 O 0.52757498625 0.6653999985 0.7775749992500001
 O2 O 0.722424999 0.5846000015 0.7775749992500001
 O2 O 0.52757498625 0.5846000015 0.7775749992500001
 O2 O 0.722424999 0.6653999985 0.972424999
 O2 O 0.52757498625 0.6653999985 0.972424999
 O2 O 0.5846000015 0.5275749992500001 0.972424999
 O2 O 0.5846000015 0.5275749992500001 0.77757498625
 O2 O 0.6653999985 0.722424999 0.972424999
 O2 O 0.6653999985 0.722424999 0.77757498625
 O2 O 0.5846000015 0.722424999 0.972424999
 O2 O 0.5846000015 0.722424999 0.77757498625
 O2 O 0.6653999985 0.5275749992500001 0.972424999
 O2 O 0.6653999985 0.5275749992500001 0.77757498625
 T1 Si 0.5 0.5455750002499999 0.84210000175
 T1 Si 0.5 0.5455750002499999 0.84210000175
 T1 Si 0.5 0.704425007 0.9079000054999999
 T1 Si 0.5 0.704425007 0.9079000054999999
 T1 Si 0.5 0.704425007 0.84210000175
 T1 Si 0.5 0.704425007 0.84210000175
 T1 Si 0.5 0.5455750002499999 0.9079000054999999
 T1 Si 0.5 0.5455750002499999 0.9079000054999999
 T1 Si 0.59210000175 0.5 0.7955750002499999
 T1 Si 0.59210000175 0.5 0.7955750002499999
 T1 Si 0.6579000054999999 0.5 0.954425007
 T1 Si 0.6579000054999999 0.5 0.954425007
 T1 Si 0.59210000175 0.5 0.954425007
 T1 Si 0.59210000175 0.5 0.954425007
 T1 Si 0.6579000054999999 0.5 0.7955750002499999
 T1 Si 0.6579000054999999 0.5 0.7955750002499999
 T1 Si 0.5455750002499999 0.59210000175 0.75
 T1 Si 0.5455750002499999 0.59210000175 0.75
 T1 Si 0.704425007 0.6579000054999999 0.75
 T1 Si 0.704425007 0.6579000054999999 0.75
 T1 Si 0.704425007 0.59210000175 0.75
 T1 Si 0.704425007 0.59210000175 0.75
 T1 Si 0.5455750002499999 0.6579000054999999 0.75
 T1 Si 0.5455750002499999 0.6579000054999999 0.75
 T1 Si 0.5455750002499999 0.5 0.9079000054999999
 T1 Si 0.5455750002499999 0.5 0.9079000054999999
 T1 Si 0.704425007 0.5 0.84210000175
 T1 Si 0.704425007 0.5 0.84210000175
 T1 Si 0.704425007 0.5 0.9079000054999999
 T1 Si 0.704425007 0.5 0.9079000054999999
 T1 Si 0.5455750002499999 0.5 0.84210000175
 T1 Si 0.5455750002499999 0.5 0.84210000175
 T1 Si 0.5 0.59210000175 0.954425007
 T1 Si 0.5 0.59210000175 0.954425007
 T1 Si 0.5 0.6579000054999999 0.7955750002499999
 T1 Si 0.5 0.6579000054999999 0.7955750002499999
 T1 Si 0.5 0.59210000175 0.7955750002499999
 T1 Si 0.5 0.59210000175 0.7955750002499999
 T1 Si 0.5 0.6579000054999999 0.954425007
 T1 Si 0.5 0.6579000054999999 0.954425007
 T1 Si 0.59210000175 0.5455750002499999 0.75
 T1 Si 0.59210000175 0.5455750002499999 0.75
 T1 Si 0.6579000054999999 0.704425007 0.75
 T1 Si 0.6579000054999999 0.704425007 0.75
 T1 Si 0.59210000175 0.704425007 0.75
 T1 Si 0.59210000175 0.704425007 0.75
 T1 Si 0.6579000054999999 0.5455750002499999 0.75
 T1 Si 0.6579000054999999 0.5455750002499999 0.75
 O1 O 0.75 0.5530500002500001 0.875
 O1 O 0.75 0.5530500002500001 0.875
 O1 O 0.75 0.6969500035 0.875
 O1 O 0.75 0.6969500035 0.875
 O1 O 0.875 0.5 0.8030500002500001
 O1 O 0.875 0.5 0.8030500002500001
 O1 O 0.875 0.5 0.9469500035
 O1 O 0.875 0.5 0.9469500035
 O1 O 0.8030500002500001 0.625 0.75
 O1 O 0.8030500002500001 0.625 0.75
 O1 O 0.9469500035 0.625 0.75
 O1 O 0.9469500035 0.625 0.75
 O1 O 0.8030500002500001 0.5 0.875
 O1 O 0.8030500002500001 0.5 0.875
 O1 O 0.9469500035 0.5 0.875
 O1 O 0.9469500035 0.5 0.875
 O1 O 0.75 0.625 0.9469500035
 O1 O 0.75 0.625 0.9469500035
 O1 O 0.75 0.625 0.8030500002500001
 O1 O 0.75 0.625 0.8030500002500001
 O1 O 0.875 0.5530500002500001 0.75
 O1 O 0.875 0.5530500002500001 0.75
 O1 O 0.875 0.6969500035 0.75
 O1 O 0.875 0.6969500035 0.75
 O2 O 0.7775749992500001 0.5275749992500001 0.8346000015
 O2 O 0.972424999 0.722424999 0.9153999985
 O2 O 0.972424999 0.722424999 0.8346000015
 O2 O 0.7775749992500001 0.5275749992500001 0.9153999985
 O2 O 0.972424999 0.5275749992500001 0.9153999985
 O2 O 0.7775749992500001 0.722424999 0.8346000015
 O2 O 0.7775749992500001 0.722424999 0.9153999985
 O2 O 0.972424999 0.5275749992500001 0.8346000015
 O2 O 0.8346000015 0.5275749992500001 0.7775749992500001
 O2 O 0.9153999985 0.722424999 0.972424999
 O2 O 0.8346000015 0.722424999 0.972424999
 O2 O 0.9153999985 0.5275749992500001 0.7775749992500001
 O2 O 0.9153999985 0.722424999 0.7775749992500001
 O2 O 0.8346000015 0.5275749992500001 0.972424999
 O2 O 0.9153999985 0.5275749992500001 0.972424999
 O2 O 0.8346000015 0.722424999 0.7775749992500001
 O2 O 0.7775749992500001 0.5846000015 0.7775749992500001
 O2 O 0.972424999 0.6653999985 0.972424999
 O2 O 0.972424999 0.5846000015 0.972424999
 O2 O 0.7775749992500001 0.6653999985 0.7775749992500001
 O2 O 0.7775749992500001 0.6653999985 0.972424999
 O2 O 0.972424999 0.5846000015 0.7775749992500001
 O2 O 0.972424999 0.6653999985 0.7775749992500001
 O2 O 0.7775749992500001 0.5846000015 0.972424999
 O3 O 0.75 0.57417500025 0.82417500025
 O3 O 0.75 0.57417500025 0.82417500025
 O3 O 0.75 0.67582499975 0.92582499975
 O3 O 0.75 0.67582499975 0.92582499975
 O3 O 0.75 0.67582499975 0.82417500025
 O3 O 0.75 0.67582499975 0.82417500025
 O3 O 0.75 0.57417500025 0.92582499975
 O3 O 0.75 0.57417500025 0.92582499975
 O3 O 0.82417500025 0.5 0.82417500025
 O3 O 0.82417500025 0.5 0.82417500025
 O3 O 0.92582499975 0.5 0.92582499975
 O3 O 0.92582499975 0.5 0.92582499975
 O3 O 0.82417500025 0.5 0.92582499975
 O3 O 0.82417500025 0.5 0.92582499975
 O3 O 0.92582499975 0.5 0.82417500025
 O3 O 0.92582499975 0.5 0.82417500025
 O3 O 0.82417500025 0.57417500025 0.75
 O3 O 0.82417500025 0.57417500025 0.75
 O3 O 0.92582499975 0.67582499975 0.75
 O3 O 0.92582499975 0.67582499975 0.75
 O3 O 0.92582499975 0.57417500025 0.75
 O3 O 0.92582499975 0.57417500025 0.75
 O3 O 0.82417500025 0.67582499975 0.75
 O3 O 0.82417500025 0.67582499975 0.75
 O2 O 0.972424999 0.5275749992500001 0.8346000015
 O2 O 0.77757498625 0.5275749992500001 0.8346000015
 O2 O 0.972424999 0.722424999 0.9153999985
 O2 O 0.77757498625 0.722424999 0.9153999985
 O2 O 0.972424999 0.722424999 0.8346000015
 O2 O 0.77757498625 0.722424999 0.8346000015
 O2 O 0.972424999 0.5275749992500001 0.9153999985
 O2 O 0.77757498625 0.5275749992500001 0.9153999985
 O2 O 0.8346000015 0.722424999 0.7775749992500001
 O2 O 0.8346000015 0.52757498625 0.7775749992500001
 O2 O 0.9153999985 0.722424999 0.972424999
 O2 O 0.9153999985 0.52757498625 0.972424999
 O2 O 0.8346000015 0.722424999 0.972424999
 O2 O 0.8346000015 0.52757498625 0.972424999
 O2 O 0.9153999985 0.722424999 0.7775749992500001
 O2 O 0.9153999985 0.52757498625 0.7775749992500001
 O2 O 0.7775749992500001 0.5846000015 0.972424999
 O2 O 0.7775749992500001 0.5846000015 0.77757498625
 O2 O 0.972424999 0.6653999985 0.972424999
 O2 O 0.972424999 0.6653999985 0.77757498625
 O2 O 0.972424999 0.5846000015 0.972424999
 O2 O 0.972424999 0.5846000015 0.77757498625
 O2 O 0.7775749992500001 0.6653999985 0.972424999
 O2 O 0.7775749992500001 0.6653999985 0.77757498625
 O2 O 0.7775749992500001 0.722424999 0.9153999985
 O2 O 0.7775749992500001 0.52757498625 0.9153999985
 O2 O 0.972424999 0.722424999 0.8346000015
 O2 O 0.972424999 0.52757498625 0.8346000015
 O2 O 0.972424999 0.722424999 0.9153999985
 O2 O 0.972424999 0.52757498625 0.9153999985
 O2 O 0.7775749992500001 0.722424999 0.8346000015
 O2 O 0.7775749992500001 0.52757498625 0.8346000015
 O2 O 0.972424999 0.5846000015 0.972424999
 O2 O 0.77757498625 0.5846000015 0.972424999
 O2 O 0.972424999 0.6653999985 0.7775749992500001
 O2 O 0.77757498625 0.6653999985 0.7775749992500001
 O2 O 0.972424999 0.5846000015 0.7775749992500001
 O2 O 0.77757498625 0.5846000015 0.7775749992500001
 O2 O 0.972424999 0.6653999985 0.972424999
 O2 O 0.77757498625 0.6653999985 0.972424999
 O2 O 0.8346000015 0.5275749992500001 0.972424999
 O2 O 0.8346000015 0.5275749992500001 0.77757498625
 O2 O 0.9153999985 0.722424999 0.972424999
 O2 O 0.9153999985 0.722424999 0.77757498625
 O2 O 0.8346000015 0.722424999 0.972424999
 O2 O 0.8346000015 0.722424999 0.77757498625
 O2 O 0.9153999985 0.5275749992500001 0.972424999
 O2 O 0.9153999985 0.5275749992500001 0.77757498625
 T1 Si 0.75 0.5455750002499999 0.84210000175
 T1 Si 0.75 0.5455750002499999 0.84210000175
 T1 Si 0.75 0.704425007 0.9079000054999999
 T1 Si 0.75 0.704425007 0.9079000054999999
 T1 Si 0.75 0.704425007 0.84210000175
 T1 Si 0.75 0.704425007 0.84210000175
 T1 Si 0.75 0.5455750002499999 0.9079000054999999
 T1 Si 0.75 0.5455750002499999 0.9079000054999999
 T1 Si 0.84210000175 0.5 0.7955750002499999
 T1 Si 0.84210000175 0.5 0.7955750002499999
 T1 Si 0.9079000054999999 0.5 0.954425007
 T1 Si 0.9079000054999999 0.5 0.954425007
 T1 Si 0.84210000175 0.5 0.954425007
 T1 Si 0.84210000175 0.5 0.954425007
 T1 Si 0.9079000054999999 0.5 0.7955750002499999
 T1 Si 0.9079000054999999 0.5 0.7955750002499999
 T1 Si 0.7955750002499999 0.59210000175 0.75
 T1 Si 0.7955750002499999 0.59210000175 0.75
 T1 Si 0.954425007 0.6579000054999999 0.75
 T1 Si 0.954425007 0.6579000054999999 0.75
 T1 Si 0.954425007 0.59210000175 0.75
 T1 Si 0.954425007 0.59210000175 0.75
 T1 Si 0.7955750002499999 0.6579000054999999 0.75
 T1 Si 0.7955750002499999 0.6579000054999999 0.75
 T1 Si 0.7955750002499999 0.5 0.9079000054999999
 T1 Si 0.7955750002499999 0.5 0.9079000054999999
 T1 Si 0.954425007 0.5 0.84210000175
 T1 Si 0.954425007 0.5 0.84210000175
 T1 Si 0.954425007 0.5 0.9079000054999999
 T1 Si 0.954425007 0.5 0.9079000054999999
 T1 Si 0.7955750002499999 0.5 0.84210000175
 T1 Si 0.7955750002499999 0.5 0.84210000175
 T1 Si 0.75 0.59210000175 0.954425007
 T1 Si 0.75 0.59210000175 0.954425007
 T1 Si 0.75 0.6579000054999999 0.7955750002499999
 T1 Si 0.75 0.6579000054999999 0.7955750002499999
 T1 Si 0.75 0.59210000175 0.7955750002499999
 T1 Si 0.75 0.59210000175 0.7955750002499999
 T1 Si 0.75 0.6579000054999999 0.954425007
 T1 Si 0.75 0.6579000054999999 0.954425007
 T1 Si 0.84210000175 0.5455750002499999 0.75
 T1 Si 0.84210000175 0.5455750002499999 0.75
 T1 Si 0.9079000054999999 0.704425007 0.75
 T1 Si 0.9079000054999999 0.704425007 0.75
 T1 Si 0.84210000175 0.704425007 0.75
 T1 Si 0.84210000175 0.704425007 0.75
 T1 Si 0.9079000054999999 0.5455750002499999 0.75
 T1 Si 0.9079000054999999 0.5455750002499999 0.75
 O1 O 0.0 0.8030500002500001 0.875
 O1 O 0.0 0.8030500002500001 0.875
 O1 O 0.0 0.9469500035 0.875
 O1 O 0.0 0.9469500035 0.875
 O1 O 0.125 0.75 0.8030500002500001
 O1 O 0.125 0.75 0.8030500002500001
 O1 O 0.125 0.75 0.9469500035
 O1 O 0.125 0.75 0.9469500035
 O1 O 0.05305000025 0.875 0.75
 O1 O 0.05305000025 0.875 0.75
 O1 O 0.1969500035 0.875 0.75
 O1 O 0.1969500035 0.875 0.75
 O1 O 0.05305000025 0.75 0.875
 O1 O 0.05305000025 0.75 0.875
 O1 O 0.1969500035 0.75 0.875
 O1 O 0.1969500035 0.75 0.875
 O1 O 0.0 0.875 0.9469500035
 O1 O 0.0 0.875 0.9469500035
 O1 O 0.0 0.875 0.8030500002500001
 O1 O 0.0 0.875 0.8030500002500001
 O1 O 0.125 0.8030500002500001 0.75
 O1 O 0.125 0.8030500002500001 0.75
 O1 O 0.125 0.9469500035 0.75
 O1 O 0.125 0.9469500035 0.75
 O2 O 0.02757499925 0.7775749992500001 0.8346000015
 O2 O 0.222424999 0.972424999 0.9153999985
 O2 O 0.222424999 0.972424999 0.8346000015
 O2 O 0.02757499925 0.7775749992500001 0.9153999985
 O2 O 0.222424999 0.7775749992500001 0.9153999985
 O2 O 0.02757499925 0.972424999 0.8346000015
 O2 O 0.02757499925 0.972424999 0.9153999985
 O2 O 0.222424999 0.7775749992500001 0.8346000015
 O2 O 0.0846000015 0.7775749992500001 0.7775749992500001
 O2 O 0.1653999985 0.972424999 0.972424999
 O2 O 0.0846000015 0.972424999 0.972424999
 O2 O 0.1653999985 0.7775749992500001 0.7775749992500001
 O2 O 0.1653999985 0.972424999 0.7775749992500001
 O2 O 0.0846000015 0.7775749992500001 0.972424999
 O2 O 0.1653999985 0.7775749992500001 0.972424999
 O2 O 0.0846000015 0.972424999 0.7775749992500001
 O2 O 0.02757499925 0.8346000015 0.7775749992500001
 O2 O 0.222424999 0.9153999985 0.972424999
 O2 O 0.222424999 0.8346000015 0.972424999
 O2 O 0.02757499925 0.9153999985 0.7775749992500001
 O2 O 0.02757499925 0.9153999985 0.972424999
 O2 O 0.222424999 0.8346000015 0.7775749992500001
 O2 O 0.222424999 0.9153999985 0.7775749992500001
 O2 O 0.02757499925 0.8346000015 0.972424999
 O3 O 0.0 0.82417500025 0.82417500025
 O3 O 0.0 0.82417500025 0.82417500025
 O3 O 0.0 0.92582499975 0.92582499975
 O3 O 0.0 0.92582499975 0.92582499975
 O3 O 0.0 0.92582499975 0.82417500025
 O3 O 0.0 0.92582499975 0.82417500025
 O3 O 0.0 0.82417500025 0.92582499975
 O3 O 0.0 0.82417500025 0.92582499975
 O3 O 0.07417500025 0.75 0.82417500025
 O3 O 0.07417500025 0.75 0.82417500025
 O3 O 0.17582499975 0.75 0.92582499975
 O3 O 0.17582499975 0.75 0.92582499975
 O3 O 0.07417500025 0.75 0.92582499975
 O3 O 0.07417500025 0.75 0.92582499975
 O3 O 0.17582499975 0.75 0.82417500025
 O3 O 0.17582499975 0.75 0.82417500025
 O3 O 0.07417500025 0.82417500025 0.75
 O3 O 0.07417500025 0.82417500025 0.75
 O3 O 0.17582499975 0.92582499975 0.75
 O3 O 0.17582499975 0.92582499975 0.75
 O3 O 0.17582499975 0.82417500025 0.75
 O3 O 0.17582499975 0.82417500025 0.75
 O3 O 0.07417500025 0.92582499975 0.75
 O3 O 0.07417500025 0.92582499975 0.75
 O2 O 0.222424999 0.7775749992500001 0.8346000015
 O2 O 0.02757498625 0.7775749992500001 0.8346000015
 O2 O 0.222424999 0.972424999 0.9153999985
 O2 O 0.02757498625 0.972424999 0.9153999985
 O2 O 0.222424999 0.972424999 0.8346000015
 O2 O 0.02757498625 0.972424999 0.8346000015
 O2 O 0.222424999 0.7775749992500001 0.9153999985
 O2 O 0.02757498625 0.7775749992500001 0.9153999985
 O2 O 0.0846000015 0.972424999 0.7775749992500001
 O2 O 0.0846000015 0.77757498625 0.7775749992500001
 O2 O 0.1653999985 0.972424999 0.972424999
 O2 O 0.1653999985 0.77757498625 0.972424999
 O2 O 0.0846000015 0.972424999 0.972424999
 O2 O 0.0846000015 0.77757498625 0.972424999
 O2 O 0.1653999985 0.972424999 0.7775749992500001
 O2 O 0.1653999985 0.77757498625 0.7775749992500001
 O2 O 0.02757499925 0.8346000015 0.972424999
 O2 O 0.02757499925 0.8346000015 0.77757498625
 O2 O 0.222424999 0.9153999985 0.972424999
 O2 O 0.222424999 0.9153999985 0.77757498625
 O2 O 0.222424999 0.8346000015 0.972424999
 O2 O 0.222424999 0.8346000015 0.77757498625
 O2 O 0.02757499925 0.9153999985 0.972424999
 O2 O 0.02757499925 0.9153999985 0.77757498625
 O2 O 0.02757499925 0.972424999 0.9153999985
 O2 O 0.02757499925 0.77757498625 0.9153999985
 O2 O 0.222424999 0.972424999 0.8346000015
 O2 O 0.222424999 0.77757498625 0.8346000015
 O2 O 0.222424999 0.972424999 0.9153999985
 O2 O 0.222424999 0.77757498625 0.9153999985
 O2 O 0.02757499925 0.972424999 0.8346000015
 O2 O 0.02757499925 0.77757498625 0.8346000015
 O2 O 0.222424999 0.8346000015 0.972424999
 O2 O 0.02757498625 0.8346000015 0.972424999
 O2 O 0.222424999 0.9153999985 0.7775749992500001
 O2 O 0.02757498625 0.9153999985 0.7775749992500001
 O2 O 0.222424999 0.8346000015 0.7775749992500001
 O2 O 0.02757498625 0.8346000015 0.7775749992500001
 O2 O 0.222424999 0.9153999985 0.972424999
 O2 O 0.02757498625 0.9153999985 0.972424999
 O2 O 0.0846000015 0.7775749992500001 0.972424999
 O2 O 0.0846000015 0.7775749992500001 0.77757498625
 O2 O 0.1653999985 0.972424999 0.972424999
 O2 O 0.1653999985 0.972424999 0.77757498625
 O2 O 0.0846000015 0.972424999 0.972424999
 O2 O 0.0846000015 0.972424999 0.77757498625
 O2 O 0.1653999985 0.7775749992500001 0.972424999
 O2 O 0.1653999985 0.7775749992500001 0.77757498625
 T1 Si 0.0 0.7955750002499999 0.84210000175
 T1 Si 0.0 0.7955750002499999 0.84210000175
 T1 Si 0.0 0.954425007 0.9079000054999999
 T1 Si 0.0 0.954425007 0.9079000054999999
 T1 Si 0.0 0.954425007 0.84210000175
 T1 Si 0.0 0.954425007 0.84210000175
 T1 Si 0.0 0.7955750002499999 0.9079000054999999
 T1 Si 0.0 0.7955750002499999 0.9079000054999999
 T1 Si 0.09210000175 0.75 0.7955750002499999
 T1 Si 0.09210000175 0.75 0.7955750002499999
 T1 Si 0.1579000055 0.75 0.954425007
 T1 Si 0.1579000055 0.75 0.954425007
 T1 Si 0.09210000175 0.75 0.954425007
 T1 Si 0.09210000175 0.75 0.954425007
 T1 Si 0.1579000055 0.75 0.7955750002499999
 T1 Si 0.1579000055 0.75 0.7955750002499999
 T1 Si 0.04557500025 0.84210000175 0.75
 T1 Si 0.04557500025 0.84210000175 0.75
 T1 Si 0.204425007 0.9079000054999999 0.75
 T1 Si 0.204425007 0.9079000054999999 0.75
 T1 Si 0.204425007 0.84210000175 0.75
 T1 Si 0.204425007 0.84210000175 0.75
 T1 Si 0.04557500025 0.9079000054999999 0.75
 T1 Si 0.04557500025 0.9079000054999999 0.75
 T1 Si 0.04557500025 0.75 0.9079000054999999
 T1 Si 0.04557500025 0.75 0.9079000054999999
 T1 Si 0.204425007 0.75 0.84210000175
 T1 Si 0.204425007 0.75 0.84210000175
 T1 Si 0.204425007 0.75 0.9079000054999999
 T1 Si 0.204425007 0.75 0.9079000054999999
 T1 Si 0.04557500025 0.75 0.84210000175
 T1 Si 0.04557500025 0.75 0.84210000175
 T1 Si 0.0 0.84210000175 0.954425007
 T1 Si 0.0 0.84210000175 0.954425007
 T1 Si 0.0 0.9079000054999999 0.7955750002499999
 T1 Si 0.0 0.9079000054999999 0.7955750002499999
 T1 Si 0.0 0.84210000175 0.7955750002499999
 T1 Si 0.0 0.84210000175 0.7955750002499999
 T1 Si 0.0 0.9079000054999999 0.954425007
 T1 Si 0.0 0.9079000054999999 0.954425007
 T1 Si 0.09210000175 0.7955750002499999 0.75
 T1 Si 0.09210000175 0.7955750002499999 0.75
 T1 Si 0.1579000055 0.954425007 0.75
 T1 Si 0.1579000055 0.954425007 0.75
 T1 Si 0.09210000175 0.954425007 0.75
 T1 Si 0.09210000175 0.954425007 0.75
 T1 Si 0.1579000055 0.7955750002499999 0.75
 T1 Si 0.1579000055 0.7955750002499999 0.75
 O1 O 0.25 0.8030500002500001 0.875
 O1 O 0.25 0.8030500002500001 0.875
 O1 O 0.25 0.9469500035 0.875
 O1 O 0.25 0.9469500035 0.875
 O1 O 0.375 0.75 0.8030500002500001
 O1 O 0.375 0.75 0.8030500002500001
 O1 O 0.375 0.75 0.9469500035
 O1 O 0.375 0.75 0.9469500035
 O1 O 0.30305000025 0.875 0.75
 O1 O 0.30305000025 0.875 0.75
 O1 O 0.4469500035 0.875 0.75
 O1 O 0.4469500035 0.875 0.75
 O1 O 0.30305000025 0.75 0.875
 O1 O 0.30305000025 0.75 0.875
 O1 O 0.4469500035 0.75 0.875
 O1 O 0.4469500035 0.75 0.875
 O1 O 0.25 0.875 0.9469500035
 O1 O 0.25 0.875 0.9469500035
 O1 O 0.25 0.875 0.8030500002500001
 O1 O 0.25 0.875 0.8030500002500001
 O1 O 0.375 0.8030500002500001 0.75
 O1 O 0.375 0.8030500002500001 0.75
 O1 O 0.375 0.9469500035 0.75
 O1 O 0.375 0.9469500035 0.75
 O2 O 0.27757499925 0.7775749992500001 0.8346000015
 O2 O 0.472424999 0.972424999 0.9153999985
 O2 O 0.472424999 0.972424999 0.8346000015
 O2 O 0.27757499925 0.7775749992500001 0.9153999985
 O2 O 0.472424999 0.7775749992500001 0.9153999985
 O2 O 0.27757499925 0.972424999 0.8346000015
 O2 O 0.27757499925 0.972424999 0.9153999985
 O2 O 0.472424999 0.7775749992500001 0.8346000015
 O2 O 0.3346000015 0.7775749992500001 0.7775749992500001
 O2 O 0.4153999985 0.972424999 0.972424999
 O2 O 0.3346000015 0.972424999 0.972424999
 O2 O 0.4153999985 0.7775749992500001 0.7775749992500001
 O2 O 0.4153999985 0.972424999 0.7775749992500001
 O2 O 0.3346000015 0.7775749992500001 0.972424999
 O2 O 0.4153999985 0.7775749992500001 0.972424999
 O2 O 0.3346000015 0.972424999 0.7775749992500001
 O2 O 0.27757499925 0.8346000015 0.7775749992500001
 O2 O 0.472424999 0.9153999985 0.972424999
 O2 O 0.472424999 0.8346000015 0.972424999
 O2 O 0.27757499925 0.9153999985 0.7775749992500001
 O2 O 0.27757499925 0.9153999985 0.972424999
 O2 O 0.472424999 0.8346000015 0.7775749992500001
 O2 O 0.472424999 0.9153999985 0.7775749992500001
 O2 O 0.27757499925 0.8346000015 0.972424999
 O3 O 0.25 0.82417500025 0.82417500025
 O3 O 0.25 0.82417500025 0.82417500025
 O3 O 0.25 0.92582499975 0.92582499975
 O3 O 0.25 0.92582499975 0.92582499975
 O3 O 0.25 0.92582499975 0.82417500025
 O3 O 0.25 0.92582499975 0.82417500025
 O3 O 0.25 0.82417500025 0.92582499975
 O3 O 0.25 0.82417500025 0.92582499975
 O3 O 0.32417500025 0.75 0.82417500025
 O3 O 0.32417500025 0.75 0.82417500025
 O3 O 0.42582499975 0.75 0.92582499975
 O3 O 0.42582499975 0.75 0.92582499975
 O3 O 0.32417500025 0.75 0.92582499975
 O3 O 0.32417500025 0.75 0.92582499975
 O3 O 0.42582499975 0.75 0.82417500025
 O3 O 0.42582499975 0.75 0.82417500025
 O3 O 0.32417500025 0.82417500025 0.75
 O3 O 0.32417500025 0.82417500025 0.75
 O3 O 0.42582499975 0.92582499975 0.75
 O3 O 0.42582499975 0.92582499975 0.75
 O3 O 0.42582499975 0.82417500025 0.75
 O3 O 0.42582499975 0.82417500025 0.75
 O3 O 0.32417500025 0.92582499975 0.75
 O3 O 0.32417500025 0.92582499975 0.75
 O2 O 0.472424999 0.7775749992500001 0.8346000015
 O2 O 0.27757498625 0.7775749992500001 0.8346000015
 O2 O 0.472424999 0.972424999 0.9153999985
 O2 O 0.27757498625 0.972424999 0.9153999985
 O2 O 0.472424999 0.972424999 0.8346000015
 O2 O 0.27757498625 0.972424999 0.8346000015
 O2 O 0.472424999 0.7775749992500001 0.9153999985
 O2 O 0.27757498625 0.7775749992500001 0.9153999985
 O2 O 0.3346000015 0.972424999 0.7775749992500001
 O2 O 0.3346000015 0.77757498625 0.7775749992500001
 O2 O 0.4153999985 0.972424999 0.972424999
 O2 O 0.4153999985 0.77757498625 0.972424999
 O2 O 0.3346000015 0.972424999 0.972424999
 O2 O 0.3346000015 0.77757498625 0.972424999
 O2 O 0.4153999985 0.972424999 0.7775749992500001
 O2 O 0.4153999985 0.77757498625 0.7775749992500001
 O2 O 0.27757499925 0.8346000015 0.972424999
 O2 O 0.27757499925 0.8346000015 0.77757498625
 O2 O 0.472424999 0.9153999985 0.972424999
 O2 O 0.472424999 0.9153999985 0.77757498625
 O2 O 0.472424999 0.8346000015 0.972424999
 O2 O 0.472424999 0.8346000015 0.77757498625
 O2 O 0.27757499925 0.9153999985 0.972424999
 O2 O 0.27757499925 0.9153999985 0.77757498625
 O2 O 0.27757499925 0.972424999 0.9153999985
 O2 O 0.27757499925 0.77757498625 0.9153999985
 O2 O 0.472424999 0.972424999 0.8346000015
 O2 O 0.472424999 0.77757498625 0.8346000015
 O2 O 0.472424999 0.972424999 0.9153999985
 O2 O 0.472424999 0.77757498625 0.9153999985
 O2 O 0.27757499925 0.972424999 0.8346000015
 O2 O 0.27757499925 0.77757498625 0.8346000015
 O2 O 0.472424999 0.8346000015 0.972424999
 O2 O 0.27757498625 0.8346000015 0.972424999
 O2 O 0.472424999 0.9153999985 0.7775749992500001
 O2 O 0.27757498625 0.9153999985 0.7775749992500001
 O2 O 0.472424999 0.8346000015 0.7775749992500001
 O2 O 0.27757498625 0.8346000015 0.7775749992500001
 O2 O 0.472424999 0.9153999985 0.972424999
 O2 O 0.27757498625 0.9153999985 0.972424999
 O2 O 0.3346000015 0.7775749992500001 0.972424999
 O2 O 0.3346000015 0.7775749992500001 0.77757498625
 O2 O 0.4153999985 0.972424999 0.972424999
 O2 O 0.4153999985 0.972424999 0.77757498625
 O2 O 0.3346000015 0.972424999 0.972424999
 O2 O 0.3346000015 0.972424999 0.77757498625
 O2 O 0.4153999985 0.7775749992500001 0.972424999
 O2 O 0.4153999985 0.7775749992500001 0.77757498625
 T1 Si 0.25 0.7955750002499999 0.84210000175
 T1 Si 0.25 0.7955750002499999 0.84210000175
 T1 Si 0.25 0.954425007 0.9079000054999999
 T1 Si 0.25 0.954425007 0.9079000054999999
 T1 Si 0.25 0.954425007 0.84210000175
 T1 Si 0.25 0.954425007 0.84210000175
 T1 Si 0.25 0.7955750002499999 0.9079000054999999
 T1 Si 0.25 0.7955750002499999 0.9079000054999999
 T1 Si 0.34210000175 0.75 0.7955750002499999
 T1 Si 0.34210000175 0.75 0.7955750002499999
 T1 Si 0.4079000055 0.75 0.954425007
 T1 Si 0.4079000055 0.75 0.954425007
 T1 Si 0.34210000175 0.75 0.954425007
 T1 Si 0.34210000175 0.75 0.954425007
 T1 Si 0.4079000055 0.75 0.7955750002499999
 T1 Si 0.4079000055 0.75 0.7955750002499999
 T1 Si 0.29557500025 0.84210000175 0.75
 T1 Si 0.29557500025 0.84210000175 0.75
 T1 Si 0.454425007 0.9079000054999999 0.75
 T1 Si 0.454425007 0.9079000054999999 0.75
 T1 Si 0.454425007 0.84210000175 0.75
 T1 Si 0.454425007 0.84210000175 0.75
 T1 Si 0.29557500025 0.9079000054999999 0.75
 T1 Si 0.29557500025 0.9079000054999999 0.75
 T1 Si 0.29557500025 0.75 0.9079000054999999
 T1 Si 0.29557500025 0.75 0.9079000054999999
 T1 Si 0.454425007 0.75 0.84210000175
 T1 Si 0.454425007 0.75 0.84210000175
 T1 Si 0.454425007 0.75 0.9079000054999999
 T1 Si 0.454425007 0.75 0.9079000054999999
 T1 Si 0.29557500025 0.75 0.84210000175
 T1 Si 0.29557500025 0.75 0.84210000175
 T1 Si 0.25 0.84210000175 0.954425007
 T1 Si 0.25 0.84210000175 0.954425007
 T1 Si 0.25 0.9079000054999999 0.7955750002499999
 T1 Si 0.25 0.9079000054999999 0.7955750002499999
 T1 Si 0.25 0.84210000175 0.7955750002499999
 T1 Si 0.25 0.84210000175 0.7955750002499999
 T1 Si 0.25 0.9079000054999999 0.954425007
 T1 Si 0.25 0.9079000054999999 0.954425007
 T1 Si 0.34210000175 0.7955750002499999 0.75
 T1 Si 0.34210000175 0.7955750002499999 0.75
 T1 Si 0.4079000055 0.954425007 0.75
 T1 Si 0.4079000055 0.954425007 0.75
 T1 Si 0.34210000175 0.954425007 0.75
 T1 Si 0.34210000175 0.954425007 0.75
 T1 Si 0.4079000055 0.7955750002499999 0.75
 T1 Si 0.4079000055 0.7955750002499999 0.75
 O1 O 0.5 0.8030500002500001 0.875
 O1 O 0.5 0.8030500002500001 0.875
 O1 O 0.5 0.9469500035 0.875
 O1 O 0.5 0.9469500035 0.875
 O1 O 0.625 0.75 0.8030500002500001
 O1 O 0.625 0.75 0.8030500002500001
 O1 O 0.625 0.75 0.9469500035
 O1 O 0.625 0.75 0.9469500035
 O1 O 0.5530500002500001 0.875 0.75
 O1 O 0.5530500002500001 0.875 0.75
 O1 O 0.6969500035 0.875 0.75
 O1 O 0.6969500035 0.875 0.75
 O1 O 0.5530500002500001 0.75 0.875
 O1 O 0.5530500002500001 0.75 0.875
 O1 O 0.6969500035 0.75 0.875
 O1 O 0.6969500035 0.75 0.875
 O1 O 0.5 0.875 0.9469500035
 O1 O 0.5 0.875 0.9469500035
 O1 O 0.5 0.875 0.8030500002500001
 O1 O 0.5 0.875 0.8030500002500001
 O1 O 0.625 0.8030500002500001 0.75
 O1 O 0.625 0.8030500002500001 0.75
 O1 O 0.625 0.9469500035 0.75
 O1 O 0.625 0.9469500035 0.75
 O2 O 0.5275749992500001 0.7775749992500001 0.8346000015
 O2 O 0.722424999 0.972424999 0.9153999985
 O2 O 0.722424999 0.972424999 0.8346000015
 O2 O 0.5275749992500001 0.7775749992500001 0.9153999985
 O2 O 0.722424999 0.7775749992500001 0.9153999985
 O2 O 0.5275749992500001 0.972424999 0.8346000015
 O2 O 0.5275749992500001 0.972424999 0.9153999985
 O2 O 0.722424999 0.7775749992500001 0.8346000015
 O2 O 0.5846000015 0.7775749992500001 0.7775749992500001
 O2 O 0.6653999985 0.972424999 0.972424999
 O2 O 0.5846000015 0.972424999 0.972424999
 O2 O 0.6653999985 0.7775749992500001 0.7775749992500001
 O2 O 0.6653999985 0.972424999 0.7775749992500001
 O2 O 0.5846000015 0.7775749992500001 0.972424999
 O2 O 0.6653999985 0.7775749992500001 0.972424999
 O2 O 0.5846000015 0.972424999 0.7775749992500001
 O2 O 0.5275749992500001 0.8346000015 0.7775749992500001
 O2 O 0.722424999 0.9153999985 0.972424999
 O2 O 0.722424999 0.8346000015 0.972424999
 O2 O 0.5275749992500001 0.9153999985 0.7775749992500001
 O2 O 0.5275749992500001 0.9153999985 0.972424999
 O2 O 0.722424999 0.8346000015 0.7775749992500001
 O2 O 0.722424999 0.9153999985 0.7775749992500001
 O2 O 0.5275749992500001 0.8346000015 0.972424999
 O3 O 0.5 0.82417500025 0.82417500025
 O3 O 0.5 0.82417500025 0.82417500025
 O3 O 0.5 0.92582499975 0.92582499975
 O3 O 0.5 0.92582499975 0.92582499975
 O3 O 0.5 0.92582499975 0.82417500025
 O3 O 0.5 0.92582499975 0.82417500025
 O3 O 0.5 0.82417500025 0.92582499975
 O3 O 0.5 0.82417500025 0.92582499975
 O3 O 0.57417500025 0.75 0.82417500025
 O3 O 0.57417500025 0.75 0.82417500025
 O3 O 0.67582499975 0.75 0.92582499975
 O3 O 0.67582499975 0.75 0.92582499975
 O3 O 0.57417500025 0.75 0.92582499975
 O3 O 0.57417500025 0.75 0.92582499975
 O3 O 0.67582499975 0.75 0.82417500025
 O3 O 0.67582499975 0.75 0.82417500025
 O3 O 0.57417500025 0.82417500025 0.75
 O3 O 0.57417500025 0.82417500025 0.75
 O3 O 0.67582499975 0.92582499975 0.75
 O3 O 0.67582499975 0.92582499975 0.75
 O3 O 0.67582499975 0.82417500025 0.75
 O3 O 0.67582499975 0.82417500025 0.75
 O3 O 0.57417500025 0.92582499975 0.75
 O3 O 0.57417500025 0.92582499975 0.75
 O2 O 0.722424999 0.7775749992500001 0.8346000015
 O2 O 0.52757498625 0.7775749992500001 0.8346000015
 O2 O 0.722424999 0.972424999 0.9153999985
 O2 O 0.52757498625 0.972424999 0.9153999985
 O2 O 0.722424999 0.972424999 0.8346000015
 O2 O 0.52757498625 0.972424999 0.8346000015
 O2 O 0.722424999 0.7775749992500001 0.9153999985
 O2 O 0.52757498625 0.7775749992500001 0.9153999985
 O2 O 0.5846000015 0.972424999 0.7775749992500001
 O2 O 0.5846000015 0.77757498625 0.7775749992500001
 O2 O 0.6653999985 0.972424999 0.972424999
 O2 O 0.6653999985 0.77757498625 0.972424999
 O2 O 0.5846000015 0.972424999 0.972424999
 O2 O 0.5846000015 0.77757498625 0.972424999
 O2 O 0.6653999985 0.972424999 0.7775749992500001
 O2 O 0.6653999985 0.77757498625 0.7775749992500001
 O2 O 0.5275749992500001 0.8346000015 0.972424999
 O2 O 0.5275749992500001 0.8346000015 0.77757498625
 O2 O 0.722424999 0.9153999985 0.972424999
 O2 O 0.722424999 0.9153999985 0.77757498625
 O2 O 0.722424999 0.8346000015 0.972424999
 O2 O 0.722424999 0.8346000015 0.77757498625
 O2 O 0.5275749992500001 0.9153999985 0.972424999
 O2 O 0.5275749992500001 0.9153999985 0.77757498625
 O2 O 0.5275749992500001 0.972424999 0.9153999985
 O2 O 0.5275749992500001 0.77757498625 0.9153999985
 O2 O 0.722424999 0.972424999 0.8346000015
 O2 O 0.722424999 0.77757498625 0.8346000015
 O2 O 0.722424999 0.972424999 0.9153999985
 O2 O 0.722424999 0.77757498625 0.9153999985
 O2 O 0.5275749992500001 0.972424999 0.8346000015
 O2 O 0.5275749992500001 0.77757498625 0.8346000015
 O2 O 0.722424999 0.8346000015 0.972424999
 O2 O 0.52757498625 0.8346000015 0.972424999
 O2 O 0.722424999 0.9153999985 0.7775749992500001
 O2 O 0.52757498625 0.9153999985 0.7775749992500001
 O2 O 0.722424999 0.8346000015 0.7775749992500001
 O2 O 0.52757498625 0.8346000015 0.7775749992500001
 O2 O 0.722424999 0.9153999985 0.972424999
 O2 O 0.52757498625 0.9153999985 0.972424999
 O2 O 0.5846000015 0.7775749992500001 0.972424999
 O2 O 0.5846000015 0.7775749992500001 0.77757498625
 O2 O 0.6653999985 0.972424999 0.972424999
 O2 O 0.6653999985 0.972424999 0.77757498625
 O2 O 0.5846000015 0.972424999 0.972424999
 O2 O 0.5846000015 0.972424999 0.77757498625
 O2 O 0.6653999985 0.7775749992500001 0.972424999
 O2 O 0.6653999985 0.7775749992500001 0.77757498625
 T1 Si 0.5 0.7955750002499999 0.84210000175
 T1 Si 0.5 0.7955750002499999 0.84210000175
 T1 Si 0.5 0.954425007 0.9079000054999999
 T1 Si 0.5 0.954425007 0.9079000054999999
 T1 Si 0.5 0.954425007 0.84210000175
 T1 Si 0.5 0.954425007 0.84210000175
 T1 Si 0.5 0.7955750002499999 0.9079000054999999
 T1 Si 0.5 0.7955750002499999 0.9079000054999999
 T1 Si 0.59210000175 0.75 0.7955750002499999
 T1 Si 0.59210000175 0.75 0.7955750002499999
 T1 Si 0.6579000054999999 0.75 0.954425007
 T1 Si 0.6579000054999999 0.75 0.954425007
 T1 Si 0.59210000175 0.75 0.954425007
 T1 Si 0.59210000175 0.75 0.954425007
 T1 Si 0.6579000054999999 0.75 0.7955750002499999
 T1 Si 0.6579000054999999 0.75 0.7955750002499999
 T1 Si 0.5455750002499999 0.84210000175 0.75
 T1 Si 0.5455750002499999 0.84210000175 0.75
 T1 Si 0.704425007 0.9079000054999999 0.75
 T1 Si 0.704425007 0.9079000054999999 0.75
 T1 Si 0.704425007 0.84210000175 0.75
 T1 Si 0.704425007 0.84210000175 0.75
 T1 Si 0.5455750002499999 0.9079000054999999 0.75
 T1 Si 0.5455750002499999 0.9079000054999999 0.75
 T1 Si 0.5455750002499999 0.75 0.9079000054999999
 T1 Si 0.5455750002499999 0.75 0.9079000054999999
 T1 Si 0.704425007 0.75 0.84210000175
 T1 Si 0.704425007 0.75 0.84210000175
 T1 Si 0.704425007 0.75 0.9079000054999999
 T1 Si 0.704425007 0.75 0.9079000054999999
 T1 Si 0.5455750002499999 0.75 0.84210000175
 T1 Si 0.5455750002499999 0.75 0.84210000175
 T1 Si 0.5 0.84210000175 0.954425007
 T1 Si 0.5 0.84210000175 0.954425007
 T1 Si 0.5 0.9079000054999999 0.7955750002499999
 T1 Si 0.5 0.9079000054999999 0.7955750002499999
 T1 Si 0.5 0.84210000175 0.7955750002499999
 T1 Si 0.5 0.84210000175 0.7955750002499999
 T1 Si 0.5 0.9079000054999999 0.954425007
 T1 Si 0.5 0.9079000054999999 0.954425007
 T1 Si 0.59210000175 0.7955750002499999 0.75
 T1 Si 0.59210000175 0.7955750002499999 0.75
 T1 Si 0.6579000054999999 0.954425007 0.75
 T1 Si 0.6579000054999999 0.954425007 0.75
 T1 Si 0.59210000175 0.954425007 0.75
 T1 Si 0.59210000175 0.954425007 0.75
 T1 Si 0.6579000054999999 0.7955750002499999 0.75
 T1 Si 0.6579000054999999 0.7955750002499999 0.75
 O1 O 0.75 0.8030500002500001 0.875
 O1 O 0.75 0.8030500002500001 0.875
 O1 O 0.75 0.9469500035 0.875
 O1 O 0.75 0.9469500035 0.875
 O1 O 0.875 0.75 0.8030500002500001
 O1 O 0.875 0.75 0.8030500002500001
 O1 O 0.875 0.75 0.9469500035
 O1 O 0.875 0.75 0.9469500035
 O1 O 0.8030500002500001 0.875 0.75
 O1 O 0.8030500002500001 0.875 0.75
 O1 O 0.9469500035 0.875 0.75
 O1 O 0.9469500035 0.875 0.75
 O1 O 0.8030500002500001 0.75 0.875
 O1 O 0.8030500002500001 0.75 0.875
 O1 O 0.9469500035 0.75 0.875
 O1 O 0.9469500035 0.75 0.875
 O1 O 0.75 0.875 0.9469500035
 O1 O 0.75 0.875 0.9469500035
 O1 O 0.75 0.875 0.8030500002500001
 O1 O 0.75 0.875 0.8030500002500001
 O1 O 0.875 0.8030500002500001 0.75
 O1 O 0.875 0.8030500002500001 0.75
 O1 O 0.875 0.9469500035 0.75
 O1 O 0.875 0.9469500035 0.75
 O2 O 0.7775749992500001 0.7775749992500001 0.8346000015
 O2 O 0.972424999 0.972424999 0.9153999985
 O2 O 0.972424999 0.972424999 0.8346000015
 O2 O 0.7775749992500001 0.7775749992500001 0.9153999985
 O2 O 0.972424999 0.7775749992500001 0.9153999985
 O2 O 0.7775749992500001 0.972424999 0.8346000015
 O2 O 0.7775749992500001 0.972424999 0.9153999985
 O2 O 0.972424999 0.7775749992500001 0.8346000015
 O2 O 0.8346000015 0.7775749992500001 0.7775749992500001
 O2 O 0.9153999985 0.972424999 0.972424999
 O2 O 0.8346000015 0.972424999 0.972424999
 O2 O 0.9153999985 0.7775749992500001 0.7775749992500001
 O2 O 0.9153999985 0.972424999 0.7775749992500001
 O2 O 0.8346000015 0.7775749992500001 0.972424999
 O2 O 0.9153999985 0.7775749992500001 0.972424999
 O2 O 0.8346000015 0.972424999 0.7775749992500001
 O2 O 0.7775749992500001 0.8346000015 0.7775749992500001
 O2 O 0.972424999 0.9153999985 0.972424999
 O2 O 0.972424999 0.8346000015 0.972424999
 O2 O 0.7775749992500001 0.9153999985 0.7775749992500001
 O2 O 0.7775749992500001 0.9153999985 0.972424999
 O2 O 0.972424999 0.8346000015 0.7775749992500001
 O2 O 0.972424999 0.9153999985 0.7775749992500001
 O2 O 0.7775749992500001 0.8346000015 0.972424999
 O3 O 0.75 0.82417500025 0.82417500025
 O3 O 0.75 0.82417500025 0.82417500025
 O3 O 0.75 0.92582499975 0.92582499975
 O3 O 0.75 0.92582499975 0.92582499975
 O3 O 0.75 0.92582499975 0.82417500025
 O3 O 0.75 0.92582499975 0.82417500025
 O3 O 0.75 0.82417500025 0.92582499975
 O3 O 0.75 0.82417500025 0.92582499975
 O3 O 0.82417500025 0.75 0.82417500025
 O3 O 0.82417500025 0.75 0.82417500025
 O3 O 0.92582499975 0.75 0.92582499975
 O3 O 0.92582499975 0.75 0.92582499975
 O3 O 0.82417500025 0.75 0.92582499975
 O3 O 0.82417500025 0.75 0.92582499975
 O3 O 0.92582499975 0.75 0.82417500025
 O3 O 0.92582499975 0.75 0.82417500025
 O3 O 0.82417500025 0.82417500025 0.75
 O3 O 0.82417500025 0.82417500025 0.75
 O3 O 0.92582499975 0.92582499975 0.75
 O3 O 0.92582499975 0.92582499975 0.75
 O3 O 0.92582499975 0.82417500025 0.75
 O3 O 0.92582499975 0.82417500025 0.75
 O3 O 0.82417500025 0.92582499975 0.75
 O3 O 0.82417500025 0.92582499975 0.75
 O2 O 0.972424999 0.7775749992500001 0.8346000015
 O2 O 0.77757498625 0.7775749992500001 0.8346000015
 O2 O 0.972424999 0.972424999 0.9153999985
 O2 O 0.77757498625 0.972424999 0.9153999985
 O2 O 0.972424999 0.972424999 0.8346000015
 O2 O 0.77757498625 0.972424999 0.8346000015
 O2 O 0.972424999 0.7775749992500001 0.9153999985
 O2 O 0.77757498625 0.7775749992500001 0.9153999985
 O2 O 0.8346000015 0.972424999 0.7775749992500001
 O2 O 0.8346000015 0.77757498625 0.7775749992500001
 O2 O 0.9153999985 0.972424999 0.972424999
 O2 O 0.9153999985 0.77757498625 0.972424999
 O2 O 0.8346000015 0.972424999 0.972424999
 O2 O 0.8346000015 0.77757498625 0.972424999
 O2 O 0.9153999985 0.972424999 0.7775749992500001
 O2 O 0.9153999985 0.77757498625 0.7775749992500001
 O2 O 0.7775749992500001 0.8346000015 0.972424999
 O2 O 0.7775749992500001 0.8346000015 0.77757498625
 O2 O 0.972424999 0.9153999985 0.972424999
 O2 O 0.972424999 0.9153999985 0.77757498625
 O2 O 0.972424999 0.8346000015 0.972424999
 O2 O 0.972424999 0.8346000015 0.77757498625
 O2 O 0.7775749992500001 0.9153999985 0.972424999
 O2 O 0.7775749992500001 0.9153999985 0.77757498625
 O2 O 0.7775749992500001 0.972424999 0.9153999985
 O2 O 0.7775749992500001 0.77757498625 0.9153999985
 O2 O 0.972424999 0.972424999 0.8346000015
 O2 O 0.972424999 0.77757498625 0.8346000015
 O2 O 0.972424999 0.972424999 0.9153999985
 O2 O 0.972424999 0.77757498625 0.9153999985
 O2 O 0.7775749992500001 0.972424999 0.8346000015
 O2 O 0.7775749992500001 0.77757498625 0.8346000015
 O2 O 0.972424999 0.8346000015 0.972424999
 O2 O 0.77757498625 0.8346000015 0.972424999
 O2 O 0.972424999 0.9153999985 0.7775749992500001
 O2 O 0.77757498625 0.9153999985 0.7775749992500001
 O2 O 0.972424999 0.8346000015 0.7775749992500001
 O2 O 0.77757498625 0.8346000015 0.7775749992500001
 O2 O 0.972424999 0.9153999985 0.972424999
 O2 O 0.77757498625 0.9153999985 0.972424999
 O2 O 0.8346000015 0.7775749992500001 0.972424999
 O2 O 0.8346000015 0.7775749992500001 0.77757498625
 O2 O 0.9153999985 0.972424999 0.972424999
 O2 O 0.9153999985 0.972424999 0.77757498625
 O2 O 0.8346000015 0.972424999 0.972424999
 O2 O 0.8346000015 0.972424999 0.77757498625
 O2 O 0.9153999985 0.7775749992500001 0.972424999
 O2 O 0.9153999985 0.7775749992500001 0.77757498625
 T1 Si 0.75 0.7955750002499999 0.84210000175
 T1 Si 0.75 0.7955750002499999 0.84210000175
 T1 Si 0.75 0.954425007 0.9079000054999999
 T1 Si 0.75 0.954425007 0.9079000054999999
 T1 Si 0.75 0.954425007 0.84210000175
 T1 Si 0.75 0.954425007 0.84210000175
 T1 Si 0.75 0.7955750002499999 0.9079000054999999
 T1 Si 0.75 0.7955750002499999 0.9079000054999999
 T1 Si 0.84210000175 0.75 0.7955750002499999
 T1 Si 0.84210000175 0.75 0.7955750002499999
 T1 Si 0.9079000054999999 0.75 0.954425007
 T1 Si 0.9079000054999999 0.75 0.954425007
 T1 Si 0.84210000175 0.75 0.954425007
 T1 Si 0.84210000175 0.75 0.954425007
 T1 Si 0.9079000054999999 0.75 0.7955750002499999
 T1 Si 0.9079000054999999 0.75 0.7955750002499999
 T1 Si 0.7955750002499999 0.84210000175 0.75
 T1 Si 0.7955750002499999 0.84210000175 0.75
 T1 Si 0.954425007 0.9079000054999999 0.75
 T1 Si 0.954425007 0.9079000054999999 0.75
 T1 Si 0.954425007 0.84210000175 0.75
 T1 Si 0.954425007 0.84210000175 0.75
 T1 Si 0.7955750002499999 0.9079000054999999 0.75
 T1 Si 0.7955750002499999 0.9079000054999999 0.75
 T1 Si 0.7955750002499999 0.75 0.9079000054999999
 T1 Si 0.7955750002499999 0.75 0.9079000054999999
 T1 Si 0.954425007 0.75 0.84210000175
 T1 Si 0.954425007 0.75 0.84210000175
 T1 Si 0.954425007 0.75 0.9079000054999999
 T1 Si 0.954425007 0.75 0.9079000054999999
 T1 Si 0.7955750002499999 0.75 0.84210000175
 T1 Si 0.7955750002499999 0.75 0.84210000175
 T1 Si 0.75 0.84210000175 0.954425007
 T1 Si 0.75 0.84210000175 0.954425007
 T1 Si 0.75 0.9079000054999999 0.7955750002499999
 T1 Si 0.75 0.9079000054999999 0.7955750002499999
 T1 Si 0.75 0.84210000175 0.7955750002499999
 T1 Si 0.75 0.84210000175 0.7955750002499999
 T1 Si 0.75 0.9079000054999999 0.954425007
 T1 Si 0.75 0.9079000054999999 0.954425007
 T1 Si 0.84210000175 0.7955750002499999 0.75
 T1 Si 0.84210000175 0.7955750002499999 0.75
 T1 Si 0.9079000054999999 0.954425007 0.75
 T1 Si 0.9079000054999999 0.954425007 0.75
 T1 Si 0.84210000175 0.954425007 0.75
 T1 Si 0.84210000175 0.954425007 0.75
 T1 Si 0.9079000054999999 0.7955750002499999 0.75
 T1 Si 0.9079000054999999 0.7955750002499999 0.75