data_SOR


#**************************************************************************
#
# CIF taken from the IZA-SC Database of Zeolite Structures
# Ch. Baerlocher and L.B. McCusker
# Database of Zeolite Structures: http://www.iza-structure.org/databases/ 
#
# The atom coordinates and the cell parameters were optimized with DLS76
# assuming a pure SiO2 composition.
#
#**************************************************************************


_cell_length_a    20.9277
_cell_length_b    17.7028
_cell_length_c     7.5877
_cell_angle_alpha   90.00000
_cell_angle_beta    90.00000
_cell_angle_gamma   90.00000
_cell_volume 2811.09

_symmetry_space_group_name_H-M 'Cmmm'
_symmetry_Int_Tables_number         65
_symmetry_cell_setting             orthorhombic


loop_
_symmetry_equiv_pos_as_xyz
X,Y,Z

loop_
_atom_site_label
_atom_site_type_symbol
_atom_site_fract_x
_atom_site_fract_y
_atom_site_fract_z
 Si1 Si 0.0672350005 0.02160999925 0.0748350025
 Si1 Si 0.1827649995 0.22839000075 0.1751649975
 Si1 Si 0.1827649995 0.22839000075 0.0748350025
 Si1 Si 0.0672350005 0.02160999925 0.1751649975
 Si1 Si 0.1827649995 0.02160999925 0.1751649975
 Si1 Si 0.0672350005 0.22839000075 0.0748350025
 Si1 Si 0.0672350005 0.22839000075 0.1751649975
 Si1 Si 0.1827649995 0.02160999925 0.0748350025
 Si1 Si 0.1922350005 0.14660999925 0.0748350025
 Si1 Si 0.0577649995 0.10339000075 0.1751649975
 Si1 Si 0.0577649995 0.10339000075 0.0748350025
 Si1 Si 0.1922350005 0.14660999925 0.1751649975
 Si1 Si 0.0577649995 0.14660999925 0.1751649975
 Si1 Si 0.1922350005 0.10339000075 0.0748350025
 Si1 Si 0.1922350005 0.10339000075 0.1751649975
 Si1 Si 0.0577649995 0.14660999925 0.0748350025
 Si2 Si 0.03017999975 0.02157500025 0.074832499
 Si2 Si 0.21982000025 0.22842499975 0.175167501
 Si2 Si 0.21982000025 0.22842499975 0.074832499
 Si2 Si 0.03017999975 0.02157500025 0.175167501
 Si2 Si 0.21982000025 0.02157500025 0.175167501
 Si2 Si 0.03017999975 0.22842499975 0.074832499
 Si2 Si 0.03017999975 0.22842499975 0.175167501
 Si2 Si 0.21982000025 0.02157500025 0.074832499
 Si2 Si 0.15517999975 0.14657500025 0.074832499
 Si2 Si 0.09482000025 0.10342499975 0.175167501
 Si2 Si 0.09482000025 0.10342499975 0.074832499
 Si2 Si 0.15517999975 0.14657500025 0.175167501
 Si2 Si 0.09482000025 0.14657500025 0.175167501
 Si2 Si 0.15517999975 0.10342499975 0.074832499
 Si2 Si 0.15517999975 0.10342499975 0.175167501
 Si2 Si 0.09482000025 0.14657500025 0.074832499
 Si3 Si 0.047362499 0.0764449985 0.0
 Si3 Si 0.047362499 0.0764449985 0.25
 Si3 Si 0.202637501 0.1735550015 0.0
 Si3 Si 0.202637501 0.1735550015 0.25
 Si3 Si 0.202637501 0.0764449985 0.0
 Si3 Si 0.202637501 0.0764449985 0.25
 Si3 Si 0.047362499 0.1735550015 0.0
 Si3 Si 0.047362499 0.1735550015 0.25
 Si3 Si 0.172362499 0.2014449985 0.0
 Si3 Si 0.172362499 0.2014449985 0.25
 Si3 Si 0.077637501 0.0485550015 0.0
 Si3 Si 0.077637501 0.0485550015 0.25
 Si3 Si 0.077637501 0.2014449985 0.0
 Si3 Si 0.077637501 0.2014449985 0.25
 Si3 Si 0.172362499 0.0485550015 0.0
 Si3 Si 0.172362499 0.0485550015 0.25
 Si4 Si 0.01785499975 0.04804499825 0.0
 Si4 Si 0.01785499975 0.04804499825 0.25
 Si4 Si 0.23214500025 0.20195500175 0.0
 Si4 Si 0.23214500025 0.20195500175 0.25
 Si4 Si 0.23214500025 0.04804499825 0.0
 Si4 Si 0.23214500025 0.04804499825 0.25
 Si4 Si 0.01785499975 0.20195500175 0.0
 Si4 Si 0.01785499975 0.20195500175 0.25
 Si4 Si 0.14285499975 0.17304499825 0.0
 Si4 Si 0.14285499975 0.17304499825 0.25
 Si4 Si 0.10714500025 0.07695500175 0.0
 Si4 Si 0.10714500025 0.07695500175 0.25
 Si4 Si 0.10714500025 0.17304499825 0.0
 Si4 Si 0.10714500025 0.17304499825 0.25
 Si4 Si 0.14285499975 0.07695500175 0.0
 Si4 Si 0.14285499975 0.07695500175 0.25
 O1 O 0.04870250075 0.02753500075 0.07191000125
 O1 O 0.20129749925 0.22246499925 0.17808999875
 O1 O 0.20129749925 0.22246499925 0.07191000125
 O1 O 0.04870250075 0.02753500075 0.17808999875
 O1 O 0.20129749925 0.02753500075 0.17808999875
 O1 O 0.04870250075 0.22246499925 0.07191000125
 O1 O 0.04870250075 0.22246499925 0.17808999875
 O1 O 0.20129749925 0.02753500075 0.07191000125
 O1 O 0.17370250075 0.15253500075 0.07191000125
 O1 O 0.07629749925 0.09746499925 0.17808999875
 O1 O 0.07629749925 0.09746499925 0.07191000125
 O1 O 0.17370250075 0.15253500075 0.17808999875
 O1 O 0.07629749925 0.15253500075 0.17808999875
 O1 O 0.17370250075 0.09746499925 0.07191000125
 O1 O 0.17370250075 0.09746499925 0.17808999875
 O1 O 0.07629749925 0.15253500075 0.07191000125
 O2 O 0.0773824975 0.03536500025 0.04322750125
 O2 O 0.1726175025 0.21463499975 0.20677249875
 O2 O 0.1726175025 0.21463499975 0.04322750125
 O2 O 0.0773824975 0.03536500025 0.20677249875
 O2 O 0.1726175025 0.03536500025 0.20677249875
 O2 O 0.0773824975 0.21463499975 0.04322750125
 O2 O 0.0773824975 0.21463499975 0.20677249875
 O2 O 0.1726175025 0.03536500025 0.04322750125
 O2 O 0.2023824975 0.16036500025 0.04322750125
 O2 O 0.0476175025 0.08963499975 0.20677249875
 O2 O 0.0476175025 0.08963499975 0.04322750125
 O2 O 0.2023824975 0.16036500025 0.20677249875
 O2 O 0.0476175025 0.16036500025 0.20677249875
 O2 O 0.2023824975 0.08963499975 0.04322750125
 O2 O 0.2023824975 0.08963499975 0.20677249875
 O2 O 0.0476175025 0.16036500025 0.04322750125
 O3 O 0.06933250275 0.0 0.05936750025
 O3 O 0.06933250275 0.25 0.05936750025
 O3 O 0.18066749725 0.0 0.19063249975
 O3 O 0.18066749725 0.25 0.19063249975
 O3 O 0.18066749725 0.0 0.05936750025
 O3 O 0.18066749725 0.25 0.05936750025
 O3 O 0.06933250275 0.0 0.19063249975
 O3 O 0.06933250275 0.25 0.19063249975
 O3 O 0.19433250275 0.125 0.05936750025
 O3 O 0.05566749725 0.125 0.19063249975
 O3 O 0.05566749725 0.125 0.05936750025
 O3 O 0.19433250275 0.125 0.19063249975
 O4 O 0.07323499775 0.02379499925 0.125
 O4 O 0.17676500225 0.22620500075 0.125
 O4 O 0.17676500225 0.02379499925 0.125
 O4 O 0.07323499775 0.22620500075 0.125
 O4 O 0.19823499775 0.14879499925 0.125
 O4 O 0.05176500225 0.10120500075 0.125
 O4 O 0.05176500225 0.14879499925 0.125
 O4 O 0.19823499775 0.10120500075 0.125
 O5 O 0.0281475 0.0 0.0590699985
 O5 O 0.0281475 0.25 0.0590699985
 O5 O 0.2218525 0.0 0.1909300015
 O5 O 0.2218525 0.25 0.1909300015
 O5 O 0.2218525 0.0 0.0590699985
 O5 O 0.2218525 0.25 0.0590699985
 O5 O 0.0281475 0.0 0.1909300015
 O5 O 0.0281475 0.25 0.1909300015
 O5 O 0.1531475 0.125 0.0590699985
 O5 O 0.0968525 0.125 0.1909300015
 O5 O 0.0968525 0.125 0.0590699985
 O5 O 0.1531475 0.125 0.1909300015
 O6 O 0.0241599995 0.0236249995 0.125
 O6 O 0.2258400005 0.2263750005 0.125
 O6 O 0.2258400005 0.0236249995 0.125
 O6 O 0.0241599995 0.2263750005 0.125
 O6 O 0.1491599995 0.1486249995 0.125
 O6 O 0.1008400005 0.1013750005 0.125
 O6 O 0.1008400005 0.1486249995 0.125
 O6 O 0.1491599995 0.1013750005 0.125
 O7 O 0.0198449995 0.03517999875 0.04336500175
 O7 O 0.2301550005 0.21482000125 0.20663499825
 O7 O 0.2301550005 0.21482000125 0.04336500175
 O7 O 0.0198449995 0.03517999875 0.20663499825
 O7 O 0.2301550005 0.03517999875 0.20663499825
 O7 O 0.0198449995 0.21482000125 0.04336500175
 O7 O 0.0198449995 0.21482000125 0.20663499825
 O7 O 0.2301550005 0.03517999875 0.04336500175
 O7 O 0.1448449995 0.16017999875 0.04336500175
 O7 O 0.1051550005 0.08982000125 0.20663499825
 O7 O 0.1051550005 0.08982000125 0.04336500175
 O7 O 0.1448449995 0.16017999875 0.20663499825
 O7 O 0.1051550005 0.16017999875 0.20663499825
 O7 O 0.1448449995 0.08982000125 0.04336500175
 O7 O 0.1448449995 0.08982000125 0.20663499825
 O7 O 0.1051550005 0.16017999875 0.04336500175
 O8 O 0.0625 0.0625 0.0
 O8 O 0.0625 0.0625 0.25
 O8 O 0.1875 0.1875 0.0
 O8 O 0.1875 0.1875 0.25
 O8 O 0.1875 0.0625 0.0
 O8 O 0.1875 0.0625 0.25
 O8 O 0.0625 0.1875 0.0
 O8 O 0.0625 0.1875 0.25
 O9 O 0.03091249975 0.06469249725 0.0
 O9 O 0.03091249975 0.06469249725 0.25
 O9 O 0.21908750025 0.18530750275 0.0
 O9 O 0.21908750025 0.18530750275 0.25
 O9 O 0.21908750025 0.06469249725 0.0
 O9 O 0.21908750025 0.06469249725 0.25
 O9 O 0.03091249975 0.18530750275 0.0
 O9 O 0.03091249975 0.18530750275 0.25
 O9 O 0.15591249975 0.18969249725 0.0
 O9 O 0.15591249975 0.18969249725 0.25
 O9 O 0.09408750025 0.06030750275 0.0
 O9 O 0.09408750025 0.06030750275 0.25
 O9 O 0.09408750025 0.18969249725 0.0
 O9 O 0.09408750025 0.18969249725 0.25
 O9 O 0.15591249975 0.06030750275 0.0
 O9 O 0.15591249975 0.06030750275 0.25
 O10 O 0.0 0.05657500025 0.0
 O10 O 0.0 0.05657500025 0.25
 O10 O 0.25 0.05657500025 0.0
 O10 O 0.25 0.05657500025 0.25
 O10 O 0.0 0.19342499975 0.0
 O10 O 0.0 0.19342499975 0.25
 O10 O 0.25 0.19342499975 0.0
 O10 O 0.25 0.19342499975 0.25
 O10 O 0.125 0.18157500025 0.0
 O10 O 0.125 0.18157500025 0.25
 O10 O 0.125 0.06842499975 0.0
 O10 O 0.125 0.06842499975 0.25
 O2 O 0.0476175025 0.08963499975 -0.04322750125
 O2 O 0.0476175025 0.08963499975 0.29322750125
 O2 O 0.2023824975 0.16036500025 -0.04322750125
 O2 O 0.2023824975 0.16036500025 0.29322750125
 O2 O 0.2023824975 0.08963499975 -0.04322750125
 O2 O 0.2023824975 0.08963499975 0.29322750125
 O2 O 0.0476175025 0.16036500025 -0.04322750125
 O2 O 0.0476175025 0.16036500025 0.29322750125
 O2 O 0.1726175025 0.21463499975 -0.04322750125
 O2 O 0.1726175025 0.21463499975 0.29322750125
 O2 O 0.0773824975 0.03536500025 -0.04322750125
 O2 O 0.0773824975 0.03536500025 0.29322750125
 O2 O 0.0773824975 0.21463499975 -0.04322750125
 O2 O 0.0773824975 0.21463499975 0.29322750125
 O2 O 0.1726175025 0.03536500025 -0.04322750125
 O2 O 0.1726175025 0.03536500025 0.29322750125
 O7 O 0.0198449995 0.03517999875 -0.04336500175
 O7 O 0.0198449995 0.03517999875 0.29336500175
 O7 O 0.2301550005 0.21482000125 -0.04336500175
 O7 O 0.2301550005 0.21482000125 0.29336500175
 O7 O 0.2301550005 0.03517999875 -0.04336500175
 O7 O 0.2301550005 0.03517999875 0.29336500175
 O7 O 0.0198449995 0.21482000125 -0.04336500175
 O7 O 0.0198449995 0.21482000125 0.29336500175
 O7 O 0.1448449995 0.16017999875 -0.04336500175
 O7 O 0.1448449995 0.16017999875 0.29336500175
 O7 O 0.1051550005 0.08982000125 -0.04336500175
 O7 O 0.1051550005 0.08982000125 0.29336500175
 O7 O 0.1051550005 0.16017999875 -0.04336500175
 O7 O 0.1051550005 0.16017999875 0.29336500175
 O7 O 0.1448449995 0.08982000125 -0.04336500175
 O7 O 0.1448449995 0.08982000125 0.29336500175
 Si1 Si 0.3172350005 0.02160999925 0.0748350025
 Si1 Si 0.4327649995 0.22839000075 0.1751649975
 Si1 Si 0.4327649995 0.22839000075 0.0748350025
 Si1 Si 0.3172350005 0.02160999925 0.1751649975
 Si1 Si 0.4327649995 0.02160999925 0.1751649975
 Si1 Si 0.3172350005 0.22839000075 0.0748350025
 Si1 Si 0.3172350005 0.22839000075 0.1751649975
 Si1 Si 0.4327649995 0.02160999925 0.0748350025
 Si1 Si 0.4422350005 0.14660999925 0.0748350025
 Si1 Si 0.3077649995 0.10339000075 0.1751649975
 Si1 Si 0.3077649995 0.10339000075 0.0748350025
 Si1 Si 0.4422350005 0.14660999925 0.1751649975
 Si1 Si 0.3077649995 0.14660999925 0.1751649975
 Si1 Si 0.4422350005 0.10339000075 0.0748350025
 Si1 Si 0.4422350005 0.10339000075 0.1751649975
 Si1 Si 0.3077649995 0.14660999925 0.0748350025
 Si2 Si 0.28017999975 0.02157500025 0.074832499
 Si2 Si 0.46982000025000004 0.22842499975 0.175167501
 Si2 Si 0.46982000025000004 0.22842499975 0.074832499
 Si2 Si 0.28017999975 0.02157500025 0.175167501
 Si2 Si 0.46982000025000004 0.02157500025 0.175167501
 Si2 Si 0.28017999975 0.22842499975 0.074832499
 Si2 Si 0.28017999975 0.22842499975 0.175167501
 Si2 Si 0.46982000025000004 0.02157500025 0.074832499
 Si2 Si 0.40517999974999996 0.14657500025 0.074832499
 Si2 Si 0.34482000025 0.10342499975 0.175167501
 Si2 Si 0.34482000025 0.10342499975 0.074832499
 Si2 Si 0.40517999974999996 0.14657500025 0.175167501
 Si2 Si 0.34482000025 0.14657500025 0.175167501
 Si2 Si 0.40517999974999996 0.10342499975 0.074832499
 Si2 Si 0.40517999974999996 0.10342499975 0.175167501
 Si2 Si 0.34482000025 0.14657500025 0.074832499
 Si3 Si 0.297362499 0.0764449985 0.0
 Si3 Si 0.297362499 0.0764449985 0.25
 Si3 Si 0.452637501 0.1735550015 0.0
 Si3 Si 0.452637501 0.1735550015 0.25
 Si3 Si 0.452637501 0.0764449985 0.0
 Si3 Si 0.452637501 0.0764449985 0.25
 Si3 Si 0.297362499 0.1735550015 0.0
 Si3 Si 0.297362499 0.1735550015 0.25
 Si3 Si 0.422362499 0.2014449985 0.0
 Si3 Si 0.422362499 0.2014449985 0.25
 Si3 Si 0.327637501 0.0485550015 0.0
 Si3 Si 0.327637501 0.0485550015 0.25
 Si3 Si 0.327637501 0.2014449985 0.0
 Si3 Si 0.327637501 0.2014449985 0.25
 Si3 Si 0.422362499 0.0485550015 0.0
 Si3 Si 0.422362499 0.0485550015 0.25
 Si4 Si 0.26785499975 0.04804499825 0.0
 Si4 Si 0.26785499975 0.04804499825 0.25
 Si4 Si 0.48214500025 0.20195500175 0.0
 Si4 Si 0.48214500025 0.20195500175 0.25
 Si4 Si 0.48214500025 0.04804499825 0.0
 Si4 Si 0.48214500025 0.04804499825 0.25
 Si4 Si 0.26785499975 0.20195500175 0.0
 Si4 Si 0.26785499975 0.20195500175 0.25
 Si4 Si 0.39285499975 0.17304499825 0.0
 Si4 Si 0.39285499975 0.17304499825 0.25
 Si4 Si 0.35714500025 0.07695500175 0.0
 Si4 Si 0.35714500025 0.07695500175 0.25
 Si4 Si 0.35714500025 0.17304499825 0.0
 Si4 Si 0.35714500025 0.17304499825 0.25
 Si4 Si 0.39285499975 0.07695500175 0.0
 Si4 Si 0.39285499975 0.07695500175 0.25
 O1 O 0.29870250075 0.02753500075 0.07191000125
 O1 O 0.45129749925 0.22246499925 0.17808999875
 O1 O 0.45129749925 0.22246499925 0.07191000125
 O1 O 0.29870250075 0.02753500075 0.17808999875
 O1 O 0.45129749925 0.02753500075 0.17808999875
 O1 O 0.29870250075 0.22246499925 0.07191000125
 O1 O 0.29870250075 0.22246499925 0.17808999875
 O1 O 0.45129749925 0.02753500075 0.07191000125
 O1 O 0.42370250075 0.15253500075 0.07191000125
 O1 O 0.32629749925 0.09746499925 0.17808999875
 O1 O 0.32629749925 0.09746499925 0.07191000125
 O1 O 0.42370250075 0.15253500075 0.17808999875
 O1 O 0.32629749925 0.15253500075 0.17808999875
 O1 O 0.42370250075 0.09746499925 0.07191000125
 O1 O 0.42370250075 0.09746499925 0.17808999875
 O1 O 0.32629749925 0.15253500075 0.07191000125
 O2 O 0.3273824975 0.03536500025 0.04322750125
 O2 O 0.42261750249999996 0.21463499975 0.20677249875
 O2 O 0.42261750249999996 0.21463499975 0.04322750125
 O2 O 0.3273824975 0.03536500025 0.20677249875
 O2 O 0.42261750249999996 0.03536500025 0.20677249875
 O2 O 0.3273824975 0.21463499975 0.04322750125
 O2 O 0.3273824975 0.21463499975 0.20677249875
 O2 O 0.42261750249999996 0.03536500025 0.04322750125
 O2 O 0.45238249750000004 0.16036500025 0.04322750125
 O2 O 0.2976175025 0.08963499975 0.20677249875
 O2 O 0.2976175025 0.08963499975 0.04322750125
 O2 O 0.45238249750000004 0.16036500025 0.20677249875
 O2 O 0.2976175025 0.16036500025 0.20677249875
 O2 O 0.45238249750000004 0.08963499975 0.04322750125
 O2 O 0.45238249750000004 0.08963499975 0.20677249875
 O2 O 0.2976175025 0.16036500025 0.04322750125
 O3 O 0.31933250275 0.0 0.05936750025
 O3 O 0.31933250275 0.25 0.05936750025
 O3 O 0.43066749725 0.0 0.19063249975
 O3 O 0.43066749725 0.25 0.19063249975
 O3 O 0.43066749725 0.0 0.05936750025
 O3 O 0.43066749725 0.25 0.05936750025
 O3 O 0.31933250275 0.0 0.19063249975
 O3 O 0.31933250275 0.25 0.19063249975
 O3 O 0.44433250275 0.125 0.05936750025
 O3 O 0.30566749725 0.125 0.19063249975
 O3 O 0.30566749725 0.125 0.05936750025
 O3 O 0.44433250275 0.125 0.19063249975
 O4 O 0.32323499775 0.02379499925 0.125
 O4 O 0.42676500225 0.22620500075 0.125
 O4 O 0.42676500225 0.02379499925 0.125
 O4 O 0.32323499775 0.22620500075 0.125
 O4 O 0.44823499775 0.14879499925 0.125
 O4 O 0.30176500225 0.10120500075 0.125
 O4 O 0.30176500225 0.14879499925 0.125
 O4 O 0.44823499775 0.10120500075 0.125
 O5 O 0.2781475 0.0 0.0590699985
 O5 O 0.2781475 0.25 0.0590699985
 O5 O 0.4718525 0.0 0.1909300015
 O5 O 0.4718525 0.25 0.1909300015
 O5 O 0.4718525 0.0 0.0590699985
 O5 O 0.4718525 0.25 0.0590699985
 O5 O 0.2781475 0.0 0.1909300015
 O5 O 0.2781475 0.25 0.1909300015
 O5 O 0.4031475 0.125 0.0590699985
 O5 O 0.3468525 0.125 0.1909300015
 O5 O 0.3468525 0.125 0.0590699985
 O5 O 0.4031475 0.125 0.1909300015
 O6 O 0.27415999950000003 0.0236249995 0.125
 O6 O 0.47584000049999997 0.2263750005 0.125
 O6 O 0.47584000049999997 0.0236249995 0.125
 O6 O 0.27415999950000003 0.2263750005 0.125
 O6 O 0.39915999950000003 0.1486249995 0.125
 O6 O 0.35084000049999997 0.1013750005 0.125
 O6 O 0.35084000049999997 0.1486249995 0.125
 O6 O 0.39915999950000003 0.1013750005 0.125
 O7 O 0.2698449995 0.03517999875 0.04336500175
 O7 O 0.48015500050000004 0.21482000125 0.20663499825
 O7 O 0.48015500050000004 0.21482000125 0.04336500175
 O7 O 0.2698449995 0.03517999875 0.20663499825
 O7 O 0.48015500050000004 0.03517999875 0.20663499825
 O7 O 0.2698449995 0.21482000125 0.04336500175
 O7 O 0.2698449995 0.21482000125 0.20663499825
 O7 O 0.48015500050000004 0.03517999875 0.04336500175
 O7 O 0.39484499949999996 0.16017999875 0.04336500175
 O7 O 0.3551550005 0.08982000125 0.20663499825
 O7 O 0.3551550005 0.08982000125 0.04336500175
 O7 O 0.39484499949999996 0.16017999875 0.20663499825
 O7 O 0.3551550005 0.16017999875 0.20663499825
 O7 O 0.39484499949999996 0.08982000125 0.04336500175
 O7 O 0.39484499949999996 0.08982000125 0.20663499825
 O7 O 0.3551550005 0.16017999875 0.04336500175
 O8 O 0.3125 0.0625 0.0
 O8 O 0.3125 0.0625 0.25
 O8 O 0.4375 0.1875 0.0
 O8 O 0.4375 0.1875 0.25
 O8 O 0.4375 0.0625 0.0
 O8 O 0.4375 0.0625 0.25
 O8 O 0.3125 0.1875 0.0
 O8 O 0.3125 0.1875 0.25
 O9 O 0.28091249975 0.06469249725 0.0
 O9 O 0.28091249975 0.06469249725 0.25
 O9 O 0.46908750025 0.18530750275 0.0
 O9 O 0.46908750025 0.18530750275 0.25
 O9 O 0.46908750025 0.06469249725 0.0
 O9 O 0.46908750025 0.06469249725 0.25
 O9 O 0.28091249975 0.18530750275 0.0
 O9 O 0.28091249975 0.18530750275 0.25
 O9 O 0.40591249975 0.18969249725 0.0
 O9 O 0.40591249975 0.18969249725 0.25
 O9 O 0.34408750025 0.06030750275 0.0
 O9 O 0.34408750025 0.06030750275 0.25
 O9 O 0.34408750025 0.18969249725 0.0
 O9 O 0.34408750025 0.18969249725 0.25
 O9 O 0.40591249975 0.06030750275 0.0
 O9 O 0.40591249975 0.06030750275 0.25
 O10 O 0.25 0.05657500025 0.0
 O10 O 0.25 0.05657500025 0.25
 O10 O 0.5 0.05657500025 0.0
 O10 O 0.5 0.05657500025 0.25
 O10 O 0.25 0.19342499975 0.0
 O10 O 0.25 0.19342499975 0.25
 O10 O 0.5 0.19342499975 0.0
 O10 O 0.5 0.19342499975 0.25
 O10 O 0.375 0.18157500025 0.0
 O10 O 0.375 0.18157500025 0.25
 O10 O 0.375 0.06842499975 0.0
 O10 O 0.375 0.06842499975 0.25
 O2 O 0.2976175025 0.08963499975 -0.04322750125
 O2 O 0.2976175025 0.08963499975 0.29322750125
 O2 O 0.45238249750000004 0.16036500025 -0.04322750125
 O2 O 0.45238249750000004 0.16036500025 0.29322750125
 O2 O 0.45238249750000004 0.08963499975 -0.04322750125
 O2 O 0.45238249750000004 0.08963499975 0.29322750125
 O2 O 0.2976175025 0.16036500025 -0.04322750125
 O2 O 0.2976175025 0.16036500025 0.29322750125
 O2 O 0.42261750249999996 0.21463499975 -0.04322750125
 O2 O 0.42261750249999996 0.21463499975 0.29322750125
 O2 O 0.3273824975 0.03536500025 -0.04322750125
 O2 O 0.3273824975 0.03536500025 0.29322750125
 O2 O 0.3273824975 0.21463499975 -0.04322750125
 O2 O 0.3273824975 0.21463499975 0.29322750125
 O2 O 0.42261750249999996 0.03536500025 -0.04322750125
 O2 O 0.42261750249999996 0.03536500025 0.29322750125
 O7 O 0.2698449995 0.03517999875 -0.04336500175
 O7 O 0.2698449995 0.03517999875 0.29336500175
 O7 O 0.48015500050000004 0.21482000125 -0.04336500175
 O7 O 0.48015500050000004 0.21482000125 0.29336500175
 O7 O 0.48015500050000004 0.03517999875 -0.04336500175
 O7 O 0.48015500050000004 0.03517999875 0.29336500175
 O7 O 0.2698449995 0.21482000125 -0.04336500175
 O7 O 0.2698449995 0.21482000125 0.29336500175
 O7 O 0.39484499949999996 0.16017999875 -0.04336500175
 O7 O 0.39484499949999996 0.16017999875 0.29336500175
 O7 O 0.3551550005 0.08982000125 -0.04336500175
 O7 O 0.3551550005 0.08982000125 0.29336500175
 O7 O 0.3551550005 0.16017999875 -0.04336500175
 O7 O 0.3551550005 0.16017999875 0.29336500175
 O7 O 0.39484499949999996 0.08982000125 -0.04336500175
 O7 O 0.39484499949999996 0.08982000125 0.29336500175
 Si1 Si 0.5672350005 0.02160999925 0.0748350025
 Si1 Si 0.6827649995 0.22839000075 0.1751649975
 Si1 Si 0.6827649995 0.22839000075 0.0748350025
 Si1 Si 0.5672350005 0.02160999925 0.1751649975
 Si1 Si 0.6827649995 0.02160999925 0.1751649975
 Si1 Si 0.5672350005 0.22839000075 0.0748350025
 Si1 Si 0.5672350005 0.22839000075 0.1751649975
 Si1 Si 0.6827649995 0.02160999925 0.0748350025
 Si1 Si 0.6922350005 0.14660999925 0.0748350025
 Si1 Si 0.5577649995 0.10339000075 0.1751649975
 Si1 Si 0.5577649995 0.10339000075 0.0748350025
 Si1 Si 0.6922350005 0.14660999925 0.1751649975
 Si1 Si 0.5577649995 0.14660999925 0.1751649975
 Si1 Si 0.6922350005 0.10339000075 0.0748350025
 Si1 Si 0.6922350005 0.10339000075 0.1751649975
 Si1 Si 0.5577649995 0.14660999925 0.0748350025
 Si2 Si 0.5301799997500001 0.02157500025 0.074832499
 Si2 Si 0.71982000025 0.22842499975 0.175167501
 Si2 Si 0.71982000025 0.22842499975 0.074832499
 Si2 Si 0.5301799997500001 0.02157500025 0.175167501
 Si2 Si 0.71982000025 0.02157500025 0.175167501
 Si2 Si 0.5301799997500001 0.22842499975 0.074832499
 Si2 Si 0.5301799997500001 0.22842499975 0.175167501
 Si2 Si 0.71982000025 0.02157500025 0.074832499
 Si2 Si 0.65517999975 0.14657500025 0.074832499
 Si2 Si 0.5948200002499999 0.10342499975 0.175167501
 Si2 Si 0.5948200002499999 0.10342499975 0.074832499
 Si2 Si 0.65517999975 0.14657500025 0.175167501
 Si2 Si 0.5948200002499999 0.14657500025 0.175167501
 Si2 Si 0.65517999975 0.10342499975 0.074832499
 Si2 Si 0.65517999975 0.10342499975 0.175167501
 Si2 Si 0.5948200002499999 0.14657500025 0.074832499
 Si3 Si 0.547362499 0.0764449985 0.0
 Si3 Si 0.547362499 0.0764449985 0.25
 Si3 Si 0.702637501 0.1735550015 0.0
 Si3 Si 0.702637501 0.1735550015 0.25
 Si3 Si 0.702637501 0.0764449985 0.0
 Si3 Si 0.702637501 0.0764449985 0.25
 Si3 Si 0.547362499 0.1735550015 0.0
 Si3 Si 0.547362499 0.1735550015 0.25
 Si3 Si 0.672362499 0.2014449985 0.0
 Si3 Si 0.672362499 0.2014449985 0.25
 Si3 Si 0.577637501 0.0485550015 0.0
 Si3 Si 0.577637501 0.0485550015 0.25
 Si3 Si 0.577637501 0.2014449985 0.0
 Si3 Si 0.577637501 0.2014449985 0.25
 Si3 Si 0.672362499 0.0485550015 0.0
 Si3 Si 0.672362499 0.0485550015 0.25
 Si4 Si 0.5178549997499999 0.04804499825 0.0
 Si4 Si 0.5178549997499999 0.04804499825 0.25
 Si4 Si 0.7321450002500001 0.20195500175 0.0
 Si4 Si 0.7321450002500001 0.20195500175 0.25
 Si4 Si 0.7321450002500001 0.04804499825 0.0
 Si4 Si 0.7321450002500001 0.04804499825 0.25
 Si4 Si 0.5178549997499999 0.20195500175 0.0
 Si4 Si 0.5178549997499999 0.20195500175 0.25
 Si4 Si 0.6428549997499999 0.17304499825 0.0
 Si4 Si 0.6428549997499999 0.17304499825 0.25
 Si4 Si 0.6071450002500001 0.07695500175 0.0
 Si4 Si 0.6071450002500001 0.07695500175 0.25
 Si4 Si 0.6071450002500001 0.17304499825 0.0
 Si4 Si 0.6071450002500001 0.17304499825 0.25
 Si4 Si 0.6428549997499999 0.07695500175 0.0
 Si4 Si 0.6428549997499999 0.07695500175 0.25
 O1 O 0.5487025007499999 0.02753500075 0.07191000125
 O1 O 0.7012974992500001 0.22246499925 0.17808999875
 O1 O 0.7012974992500001 0.22246499925 0.07191000125
 O1 O 0.5487025007499999 0.02753500075 0.17808999875
 O1 O 0.7012974992500001 0.02753500075 0.17808999875
 O1 O 0.5487025007499999 0.22246499925 0.07191000125
 O1 O 0.5487025007499999 0.22246499925 0.17808999875
 O1 O 0.7012974992500001 0.02753500075 0.07191000125
 O1 O 0.6737025007499999 0.15253500075 0.07191000125
 O1 O 0.5762974992500001 0.09746499925 0.17808999875
 O1 O 0.5762974992500001 0.09746499925 0.07191000125
 O1 O 0.6737025007499999 0.15253500075 0.17808999875
 O1 O 0.5762974992500001 0.15253500075 0.17808999875
 O1 O 0.6737025007499999 0.09746499925 0.07191000125
 O1 O 0.6737025007499999 0.09746499925 0.17808999875
 O1 O 0.5762974992500001 0.15253500075 0.07191000125
 O2 O 0.5773824974999999 0.03536500025 0.04322750125
 O2 O 0.6726175025 0.21463499975 0.20677249875
 O2 O 0.6726175025 0.21463499975 0.04322750125
 O2 O 0.5773824974999999 0.03536500025 0.20677249875
 O2 O 0.6726175025 0.03536500025 0.20677249875
 O2 O 0.5773824974999999 0.21463499975 0.04322750125
 O2 O 0.5773824974999999 0.21463499975 0.20677249875
 O2 O 0.6726175025 0.03536500025 0.04322750125
 O2 O 0.7023824975 0.16036500025 0.04322750125
 O2 O 0.5476175025000001 0.08963499975 0.20677249875
 O2 O 0.5476175025000001 0.08963499975 0.04322750125
 O2 O 0.7023824975 0.16036500025 0.20677249875
 O2 O 0.5476175025000001 0.16036500025 0.20677249875
 O2 O 0.7023824975 0.08963499975 0.04322750125
 O2 O 0.7023824975 0.08963499975 0.20677249875
 O2 O 0.5476175025000001 0.16036500025 0.04322750125
 O3 O 0.56933250275 0.0 0.05936750025
 O3 O 0.56933250275 0.25 0.05936750025
 O3 O 0.68066749725 0.0 0.19063249975
 O3 O 0.68066749725 0.25 0.19063249975
 O3 O 0.68066749725 0.0 0.05936750025
 O3 O 0.68066749725 0.25 0.05936750025
 O3 O 0.56933250275 0.0 0.19063249975
 O3 O 0.56933250275 0.25 0.19063249975
 O3 O 0.69433250275 0.125 0.05936750025
 O3 O 0.55566749725 0.125 0.19063249975
 O3 O 0.55566749725 0.125 0.05936750025
 O3 O 0.69433250275 0.125 0.19063249975
 O4 O 0.57323499775 0.02379499925 0.125
 O4 O 0.67676500225 0.22620500075 0.125
 O4 O 0.67676500225 0.02379499925 0.125
 O4 O 0.57323499775 0.22620500075 0.125
 O4 O 0.69823499775 0.14879499925 0.125
 O4 O 0.55176500225 0.10120500075 0.125
 O4 O 0.55176500225 0.14879499925 0.125
 O4 O 0.69823499775 0.10120500075 0.125
 O5 O 0.5281475 0.0 0.0590699985
 O5 O 0.5281475 0.25 0.0590699985
 O5 O 0.7218525 0.0 0.1909300015
 O5 O 0.7218525 0.25 0.1909300015
 O5 O 0.7218525 0.0 0.0590699985
 O5 O 0.7218525 0.25 0.0590699985
 O5 O 0.5281475 0.0 0.1909300015
 O5 O 0.5281475 0.25 0.1909300015
 O5 O 0.6531475 0.125 0.0590699985
 O5 O 0.5968525 0.125 0.1909300015
 O5 O 0.5968525 0.125 0.0590699985
 O5 O 0.6531475 0.125 0.1909300015
 O6 O 0.5241599995 0.0236249995 0.125
 O6 O 0.7258400005 0.2263750005 0.125
 O6 O 0.7258400005 0.0236249995 0.125
 O6 O 0.5241599995 0.2263750005 0.125
 O6 O 0.6491599995 0.1486249995 0.125
 O6 O 0.6008400005 0.1013750005 0.125
 O6 O 0.6008400005 0.1486249995 0.125
 O6 O 0.6491599995 0.1013750005 0.125
 O7 O 0.5198449995000001 0.03517999875 0.04336500175
 O7 O 0.7301550005 0.21482000125 0.20663499825
 O7 O 0.7301550005 0.21482000125 0.04336500175
 O7 O 0.5198449995000001 0.03517999875 0.20663499825
 O7 O 0.7301550005 0.03517999875 0.20663499825
 O7 O 0.5198449995000001 0.21482000125 0.04336500175
 O7 O 0.5198449995000001 0.21482000125 0.20663499825
 O7 O 0.7301550005 0.03517999875 0.04336500175
 O7 O 0.6448449995 0.16017999875 0.04336500175
 O7 O 0.6051550004999999 0.08982000125 0.20663499825
 O7 O 0.6051550004999999 0.08982000125 0.04336500175
 O7 O 0.6448449995 0.16017999875 0.20663499825
 O7 O 0.6051550004999999 0.16017999875 0.20663499825
 O7 O 0.6448449995 0.08982000125 0.04336500175
 O7 O 0.6448449995 0.08982000125 0.20663499825
 O7 O 0.6051550004999999 0.16017999875 0.04336500175
 O8 O 0.5625 0.0625 0.0
 O8 O 0.5625 0.0625 0.25
 O8 O 0.6875 0.1875 0.0
 O8 O 0.6875 0.1875 0.25
 O8 O 0.6875 0.0625 0.0
 O8 O 0.6875 0.0625 0.25
 O8 O 0.5625 0.1875 0.0
 O8 O 0.5625 0.1875 0.25
 O9 O 0.53091249975 0.06469249725 0.0
 O9 O 0.53091249975 0.06469249725 0.25
 O9 O 0.71908750025 0.18530750275 0.0
 O9 O 0.71908750025 0.18530750275 0.25
 O9 O 0.71908750025 0.06469249725 0.0
 O9 O 0.71908750025 0.06469249725 0.25
 O9 O 0.53091249975 0.18530750275 0.0
 O9 O 0.53091249975 0.18530750275 0.25
 O9 O 0.65591249975 0.18969249725 0.0
 O9 O 0.65591249975 0.18969249725 0.25
 O9 O 0.59408750025 0.06030750275 0.0
 O9 O 0.59408750025 0.06030750275 0.25
 O9 O 0.59408750025 0.18969249725 0.0
 O9 O 0.59408750025 0.18969249725 0.25
 O9 O 0.65591249975 0.06030750275 0.0
 O9 O 0.65591249975 0.06030750275 0.25
 O10 O 0.5 0.05657500025 0.0
 O10 O 0.5 0.05657500025 0.25
 O10 O 0.75 0.05657500025 0.0
 O10 O 0.75 0.05657500025 0.25
 O10 O 0.5 0.19342499975 0.0
 O10 O 0.5 0.19342499975 0.25
 O10 O 0.75 0.19342499975 0.0
 O10 O 0.75 0.19342499975 0.25
 O10 O 0.625 0.18157500025 0.0
 O10 O 0.625 0.18157500025 0.25
 O10 O 0.625 0.06842499975 0.0
 O10 O 0.625 0.06842499975 0.25
 O2 O 0.5476175025000001 0.08963499975 -0.04322750125
 O2 O 0.5476175025000001 0.08963499975 0.29322750125
 O2 O 0.7023824975 0.16036500025 -0.04322750125
 O2 O 0.7023824975 0.16036500025 0.29322750125
 O2 O 0.7023824975 0.08963499975 -0.04322750125
 O2 O 0.7023824975 0.08963499975 0.29322750125
 O2 O 0.5476175025000001 0.16036500025 -0.04322750125
 O2 O 0.5476175025000001 0.16036500025 0.29322750125
 O2 O 0.6726175025 0.21463499975 -0.04322750125
 O2 O 0.6726175025 0.21463499975 0.29322750125
 O2 O 0.5773824974999999 0.03536500025 -0.04322750125
 O2 O 0.5773824974999999 0.03536500025 0.29322750125
 O2 O 0.5773824974999999 0.21463499975 -0.04322750125
 O2 O 0.5773824974999999 0.21463499975 0.29322750125
 O2 O 0.6726175025 0.03536500025 -0.04322750125
 O2 O 0.6726175025 0.03536500025 0.29322750125
 O7 O 0.5198449995000001 0.03517999875 -0.04336500175
 O7 O 0.5198449995000001 0.03517999875 0.29336500175
 O7 O 0.7301550005 0.21482000125 -0.04336500175
 O7 O 0.7301550005 0.21482000125 0.29336500175
 O7 O 0.7301550005 0.03517999875 -0.04336500175
 O7 O 0.7301550005 0.03517999875 0.29336500175
 O7 O 0.5198449995000001 0.21482000125 -0.04336500175
 O7 O 0.5198449995000001 0.21482000125 0.29336500175
 O7 O 0.6448449995 0.16017999875 -0.04336500175
 O7 O 0.6448449995 0.16017999875 0.29336500175
 O7 O 0.6051550004999999 0.08982000125 -0.04336500175
 O7 O 0.6051550004999999 0.08982000125 0.29336500175
 O7 O 0.6051550004999999 0.16017999875 -0.04336500175
 O7 O 0.6051550004999999 0.16017999875 0.29336500175
 O7 O 0.6448449995 0.08982000125 -0.04336500175
 O7 O 0.6448449995 0.08982000125 0.29336500175
 Si1 Si 0.8172350005 0.02160999925 0.0748350025
 Si1 Si 0.9327649995 0.22839000075 0.1751649975
 Si1 Si 0.9327649995 0.22839000075 0.0748350025
 Si1 Si 0.8172350005 0.02160999925 0.1751649975
 Si1 Si 0.9327649995 0.02160999925 0.1751649975
 Si1 Si 0.8172350005 0.22839000075 0.0748350025
 Si1 Si 0.8172350005 0.22839000075 0.1751649975
 Si1 Si 0.9327649995 0.02160999925 0.0748350025
 Si1 Si 0.9422350005 0.14660999925 0.0748350025
 Si1 Si 0.8077649995 0.10339000075 0.1751649975
 Si1 Si 0.8077649995 0.10339000075 0.0748350025
 Si1 Si 0.9422350005 0.14660999925 0.1751649975
 Si1 Si 0.8077649995 0.14660999925 0.1751649975
 Si1 Si 0.9422350005 0.10339000075 0.0748350025
 Si1 Si 0.9422350005 0.10339000075 0.1751649975
 Si1 Si 0.8077649995 0.14660999925 0.0748350025
 Si2 Si 0.7801799997500001 0.02157500025 0.074832499
 Si2 Si 0.96982000025 0.22842499975 0.175167501
 Si2 Si 0.96982000025 0.22842499975 0.074832499
 Si2 Si 0.7801799997500001 0.02157500025 0.175167501
 Si2 Si 0.96982000025 0.02157500025 0.175167501
 Si2 Si 0.7801799997500001 0.22842499975 0.074832499
 Si2 Si 0.7801799997500001 0.22842499975 0.175167501
 Si2 Si 0.96982000025 0.02157500025 0.074832499
 Si2 Si 0.90517999975 0.14657500025 0.074832499
 Si2 Si 0.8448200002499999 0.10342499975 0.175167501
 Si2 Si 0.8448200002499999 0.10342499975 0.074832499
 Si2 Si 0.90517999975 0.14657500025 0.175167501
 Si2 Si 0.8448200002499999 0.14657500025 0.175167501
 Si2 Si 0.90517999975 0.10342499975 0.074832499
 Si2 Si 0.90517999975 0.10342499975 0.175167501
 Si2 Si 0.8448200002499999 0.14657500025 0.074832499
 Si3 Si 0.797362499 0.0764449985 0.0
 Si3 Si 0.797362499 0.0764449985 0.25
 Si3 Si 0.952637501 0.1735550015 0.0
 Si3 Si 0.952637501 0.1735550015 0.25
 Si3 Si 0.952637501 0.0764449985 0.0
 Si3 Si 0.952637501 0.0764449985 0.25
 Si3 Si 0.797362499 0.1735550015 0.0
 Si3 Si 0.797362499 0.1735550015 0.25
 Si3 Si 0.922362499 0.2014449985 0.0
 Si3 Si 0.922362499 0.2014449985 0.25
 Si3 Si 0.827637501 0.0485550015 0.0
 Si3 Si 0.827637501 0.0485550015 0.25
 Si3 Si 0.827637501 0.2014449985 0.0
 Si3 Si 0.827637501 0.2014449985 0.25
 Si3 Si 0.922362499 0.0485550015 0.0
 Si3 Si 0.922362499 0.0485550015 0.25
 Si4 Si 0.7678549997499999 0.04804499825 0.0
 Si4 Si 0.7678549997499999 0.04804499825 0.25
 Si4 Si 0.9821450002500001 0.20195500175 0.0
 Si4 Si 0.9821450002500001 0.20195500175 0.25
 Si4 Si 0.9821450002500001 0.04804499825 0.0
 Si4 Si 0.9821450002500001 0.04804499825 0.25
 Si4 Si 0.7678549997499999 0.20195500175 0.0
 Si4 Si 0.7678549997499999 0.20195500175 0.25
 Si4 Si 0.8928549997499999 0.17304499825 0.0
 Si4 Si 0.8928549997499999 0.17304499825 0.25
 Si4 Si 0.8571450002500001 0.07695500175 0.0
 Si4 Si 0.8571450002500001 0.07695500175 0.25
 Si4 Si 0.8571450002500001 0.17304499825 0.0
 Si4 Si 0.8571450002500001 0.17304499825 0.25
 Si4 Si 0.8928549997499999 0.07695500175 0.0
 Si4 Si 0.8928549997499999 0.07695500175 0.25
 O1 O 0.7987025007499999 0.02753500075 0.07191000125
 O1 O 0.9512974992500001 0.22246499925 0.17808999875
 O1 O 0.9512974992500001 0.22246499925 0.07191000125
 O1 O 0.7987025007499999 0.02753500075 0.17808999875
 O1 O 0.9512974992500001 0.02753500075 0.17808999875
 O1 O 0.7987025007499999 0.22246499925 0.07191000125
 O1 O 0.7987025007499999 0.22246499925 0.17808999875
 O1 O 0.9512974992500001 0.02753500075 0.07191000125
 O1 O 0.9237025007499999 0.15253500075 0.07191000125
 O1 O 0.8262974992500001 0.09746499925 0.17808999875
 O1 O 0.8262974992500001 0.09746499925 0.07191000125
 O1 O 0.9237025007499999 0.15253500075 0.17808999875
 O1 O 0.8262974992500001 0.15253500075 0.17808999875
 O1 O 0.9237025007499999 0.09746499925 0.07191000125
 O1 O 0.9237025007499999 0.09746499925 0.17808999875
 O1 O 0.8262974992500001 0.15253500075 0.07191000125
 O2 O 0.8273824974999999 0.03536500025 0.04322750125
 O2 O 0.9226175025 0.21463499975 0.20677249875
 O2 O 0.9226175025 0.21463499975 0.04322750125
 O2 O 0.8273824974999999 0.03536500025 0.20677249875
 O2 O 0.9226175025 0.03536500025 0.20677249875
 O2 O 0.8273824974999999 0.21463499975 0.04322750125
 O2 O 0.8273824974999999 0.21463499975 0.20677249875
 O2 O 0.9226175025 0.03536500025 0.04322750125
 O2 O 0.9523824975 0.16036500025 0.04322750125
 O2 O 0.7976175025000001 0.08963499975 0.20677249875
 O2 O 0.7976175025000001 0.08963499975 0.04322750125
 O2 O 0.9523824975 0.16036500025 0.20677249875
 O2 O 0.7976175025000001 0.16036500025 0.20677249875
 O2 O 0.9523824975 0.08963499975 0.04322750125
 O2 O 0.9523824975 0.08963499975 0.20677249875
 O2 O 0.7976175025000001 0.16036500025 0.04322750125
 O3 O 0.81933250275 0.0 0.05936750025
 O3 O 0.81933250275 0.25 0.05936750025
 O3 O 0.93066749725 0.0 0.19063249975
 O3 O 0.93066749725 0.25 0.19063249975
 O3 O 0.93066749725 0.0 0.05936750025
 O3 O 0.93066749725 0.25 0.05936750025
 O3 O 0.81933250275 0.0 0.19063249975
 O3 O 0.81933250275 0.25 0.19063249975
 O3 O 0.94433250275 0.125 0.05936750025
 O3 O 0.80566749725 0.125 0.19063249975
 O3 O 0.80566749725 0.125 0.05936750025
 O3 O 0.94433250275 0.125 0.19063249975
 O4 O 0.82323499775 0.02379499925 0.125
 O4 O 0.92676500225 0.22620500075 0.125
 O4 O 0.92676500225 0.02379499925 0.125
 O4 O 0.82323499775 0.22620500075 0.125
 O4 O 0.94823499775 0.14879499925 0.125
 O4 O 0.80176500225 0.10120500075 0.125
 O4 O 0.80176500225 0.14879499925 0.125
 O4 O 0.94823499775 0.10120500075 0.125
 O5 O 0.7781475 0.0 0.0590699985
 O5 O 0.7781475 0.25 0.0590699985
 O5 O 0.9718525 0.0 0.1909300015
 O5 O 0.9718525 0.25 0.1909300015
 O5 O 0.9718525 0.0 0.0590699985
 O5 O 0.9718525 0.25 0.0590699985
 O5 O 0.7781475 0.0 0.1909300015
 O5 O 0.7781475 0.25 0.1909300015
 O5 O 0.9031475 0.125 0.0590699985
 O5 O 0.8468525 0.125 0.1909300015
 O5 O 0.8468525 0.125 0.0590699985
 O5 O 0.9031475 0.125 0.1909300015
 O6 O 0.7741599995 0.0236249995 0.125
 O6 O 0.9758400005 0.2263750005 0.125
 O6 O 0.9758400005 0.0236249995 0.125
 O6 O 0.7741599995 0.2263750005 0.125
 O6 O 0.8991599995 0.1486249995 0.125
 O6 O 0.8508400005 0.1013750005 0.125
 O6 O 0.8508400005 0.1486249995 0.125
 O6 O 0.8991599995 0.1013750005 0.125
 O7 O 0.7698449995000001 0.03517999875 0.04336500175
 O7 O 0.9801550005 0.21482000125 0.20663499825
 O7 O 0.9801550005 0.21482000125 0.04336500175
 O7 O 0.7698449995000001 0.03517999875 0.20663499825
 O7 O 0.9801550005 0.03517999875 0.20663499825
 O7 O 0.7698449995000001 0.21482000125 0.04336500175
 O7 O 0.7698449995000001 0.21482000125 0.20663499825
 O7 O 0.9801550005 0.03517999875 0.04336500175
 O7 O 0.8948449995 0.16017999875 0.04336500175
 O7 O 0.8551550004999999 0.08982000125 0.20663499825
 O7 O 0.8551550004999999 0.08982000125 0.04336500175
 O7 O 0.8948449995 0.16017999875 0.20663499825
 O7 O 0.8551550004999999 0.16017999875 0.20663499825
 O7 O 0.8948449995 0.08982000125 0.04336500175
 O7 O 0.8948449995 0.08982000125 0.20663499825
 O7 O 0.8551550004999999 0.16017999875 0.04336500175
 O8 O 0.8125 0.0625 0.0
 O8 O 0.8125 0.0625 0.25
 O8 O 0.9375 0.1875 0.0
 O8 O 0.9375 0.1875 0.25
 O8 O 0.9375 0.0625 0.0
 O8 O 0.9375 0.0625 0.25
 O8 O 0.8125 0.1875 0.0
 O8 O 0.8125 0.1875 0.25
 O9 O 0.78091249975 0.06469249725 0.0
 O9 O 0.78091249975 0.06469249725 0.25
 O9 O 0.96908750025 0.18530750275 0.0
 O9 O 0.96908750025 0.18530750275 0.25
 O9 O 0.96908750025 0.06469249725 0.0
 O9 O 0.96908750025 0.06469249725 0.25
 O9 O 0.78091249975 0.18530750275 0.0
 O9 O 0.78091249975 0.18530750275 0.25
 O9 O 0.90591249975 0.18969249725 0.0
 O9 O 0.90591249975 0.18969249725 0.25
 O9 O 0.84408750025 0.06030750275 0.0
 O9 O 0.84408750025 0.06030750275 0.25
 O9 O 0.84408750025 0.18969249725 0.0
 O9 O 0.84408750025 0.18969249725 0.25
 O9 O 0.90591249975 0.06030750275 0.0
 O9 O 0.90591249975 0.06030750275 0.25
 O10 O 0.75 0.05657500025 0.0
 O10 O 0.75 0.05657500025 0.25
 O10 O 1.0 0.05657500025 0.0
 O10 O 1.0 0.05657500025 0.25
 O10 O 0.75 0.19342499975 0.0
 O10 O 0.75 0.19342499975 0.25
 O10 O 1.0 0.19342499975 0.0
 O10 O 1.0 0.19342499975 0.25
 O10 O 0.875 0.18157500025 0.0
 O10 O 0.875 0.18157500025 0.25
 O10 O 0.875 0.06842499975 0.0
 O10 O 0.875 0.06842499975 0.25
 O2 O 0.7976175025000001 0.08963499975 -0.04322750125
 O2 O 0.7976175025000001 0.08963499975 0.29322750125
 O2 O 0.9523824975 0.16036500025 -0.04322750125
 O2 O 0.9523824975 0.16036500025 0.29322750125
 O2 O 0.9523824975 0.08963499975 -0.04322750125
 O2 O 0.9523824975 0.08963499975 0.29322750125
 O2 O 0.7976175025000001 0.16036500025 -0.04322750125
 O2 O 0.7976175025000001 0.16036500025 0.29322750125
 O2 O 0.9226175025 0.21463499975 -0.04322750125
 O2 O 0.9226175025 0.21463499975 0.29322750125
 O2 O 0.8273824974999999 0.03536500025 -0.04322750125
 O2 O 0.8273824974999999 0.03536500025 0.29322750125
 O2 O 0.8273824974999999 0.21463499975 -0.04322750125
 O2 O 0.8273824974999999 0.21463499975 0.29322750125
 O2 O 0.9226175025 0.03536500025 -0.04322750125
 O2 O 0.9226175025 0.03536500025 0.29322750125
 O7 O 0.7698449995000001 0.03517999875 -0.04336500175
 O7 O 0.7698449995000001 0.03517999875 0.29336500175
 O7 O 0.9801550005 0.21482000125 -0.04336500175
 O7 O 0.9801550005 0.21482000125 0.29336500175
 O7 O 0.9801550005 0.03517999875 -0.04336500175
 O7 O 0.9801550005 0.03517999875 0.29336500175
 O7 O 0.7698449995000001 0.21482000125 -0.04336500175
 O7 O 0.7698449995000001 0.21482000125 0.29336500175
 O7 O 0.8948449995 0.16017999875 -0.04336500175
 O7 O 0.8948449995 0.16017999875 0.29336500175
 O7 O 0.8551550004999999 0.08982000125 -0.04336500175
 O7 O 0.8551550004999999 0.08982000125 0.29336500175
 O7 O 0.8551550004999999 0.16017999875 -0.04336500175
 O7 O 0.8551550004999999 0.16017999875 0.29336500175
 O7 O 0.8948449995 0.08982000125 -0.04336500175
 O7 O 0.8948449995 0.08982000125 0.29336500175
 Si1 Si 0.0672350005 0.27160999925 0.0748350025
 Si1 Si 0.1827649995 0.47839000075 0.1751649975
 Si1 Si 0.1827649995 0.47839000075 0.0748350025
 Si1 Si 0.0672350005 0.27160999925 0.1751649975
 Si1 Si 0.1827649995 0.27160999925 0.1751649975
 Si1 Si 0.0672350005 0.47839000075 0.0748350025
 Si1 Si 0.0672350005 0.47839000075 0.1751649975
 Si1 Si 0.1827649995 0.27160999925 0.0748350025
 Si1 Si 0.1922350005 0.39660999925 0.0748350025
 Si1 Si 0.0577649995 0.35339000075 0.1751649975
 Si1 Si 0.0577649995 0.35339000075 0.0748350025
 Si1 Si 0.1922350005 0.39660999925 0.1751649975
 Si1 Si 0.0577649995 0.39660999925 0.1751649975
 Si1 Si 0.1922350005 0.35339000075 0.0748350025
 Si1 Si 0.1922350005 0.35339000075 0.1751649975
 Si1 Si 0.0577649995 0.39660999925 0.0748350025
 Si2 Si 0.03017999975 0.27157500025 0.074832499
 Si2 Si 0.21982000025 0.47842499974999997 0.175167501
 Si2 Si 0.21982000025 0.47842499974999997 0.074832499
 Si2 Si 0.03017999975 0.27157500025 0.175167501
 Si2 Si 0.21982000025 0.27157500025 0.175167501
 Si2 Si 0.03017999975 0.47842499974999997 0.074832499
 Si2 Si 0.03017999975 0.47842499974999997 0.175167501
 Si2 Si 0.21982000025 0.27157500025 0.074832499
 Si2 Si 0.15517999975 0.39657500025000003 0.074832499
 Si2 Si 0.09482000025 0.35342499974999997 0.175167501
 Si2 Si 0.09482000025 0.35342499974999997 0.074832499
 Si2 Si 0.15517999975 0.39657500025000003 0.175167501
 Si2 Si 0.09482000025 0.39657500025000003 0.175167501
 Si2 Si 0.15517999975 0.35342499974999997 0.074832499
 Si2 Si 0.15517999975 0.35342499974999997 0.175167501
 Si2 Si 0.09482000025 0.39657500025000003 0.074832499
 Si3 Si 0.047362499 0.32644499849999997 0.0
 Si3 Si 0.047362499 0.32644499849999997 0.25
 Si3 Si 0.202637501 0.42355500150000003 0.0
 Si3 Si 0.202637501 0.42355500150000003 0.25
 Si3 Si 0.202637501 0.32644499849999997 0.0
 Si3 Si 0.202637501 0.32644499849999997 0.25
 Si3 Si 0.047362499 0.42355500150000003 0.0
 Si3 Si 0.047362499 0.42355500150000003 0.25
 Si3 Si 0.172362499 0.45144499849999997 0.0
 Si3 Si 0.172362499 0.45144499849999997 0.25
 Si3 Si 0.077637501 0.29855500150000003 0.0
 Si3 Si 0.077637501 0.29855500150000003 0.25
 Si3 Si 0.077637501 0.45144499849999997 0.0
 Si3 Si 0.077637501 0.45144499849999997 0.25
 Si3 Si 0.172362499 0.29855500150000003 0.0
 Si3 Si 0.172362499 0.29855500150000003 0.25
 Si4 Si 0.01785499975 0.29804499824999997 0.0
 Si4 Si 0.01785499975 0.29804499824999997 0.25
 Si4 Si 0.23214500025 0.45195500175000003 0.0
 Si4 Si 0.23214500025 0.45195500175000003 0.25
 Si4 Si 0.23214500025 0.29804499824999997 0.0
 Si4 Si 0.23214500025 0.29804499824999997 0.25
 Si4 Si 0.01785499975 0.45195500175000003 0.0
 Si4 Si 0.01785499975 0.45195500175000003 0.25
 Si4 Si 0.14285499975 0.42304499824999997 0.0
 Si4 Si 0.14285499975 0.42304499824999997 0.25
 Si4 Si 0.10714500025 0.32695500175000003 0.0
 Si4 Si 0.10714500025 0.32695500175000003 0.25
 Si4 Si 0.10714500025 0.42304499824999997 0.0
 Si4 Si 0.10714500025 0.42304499824999997 0.25
 Si4 Si 0.14285499975 0.32695500175000003 0.0
 Si4 Si 0.14285499975 0.32695500175000003 0.25
 O1 O 0.04870250075 0.27753500075 0.07191000125
 O1 O 0.20129749925 0.47246499924999996 0.17808999875
 O1 O 0.20129749925 0.47246499924999996 0.07191000125
 O1 O 0.04870250075 0.27753500075 0.17808999875
 O1 O 0.20129749925 0.27753500075 0.17808999875
 O1 O 0.04870250075 0.47246499924999996 0.07191000125
 O1 O 0.04870250075 0.47246499924999996 0.17808999875
 O1 O 0.20129749925 0.27753500075 0.07191000125
 O1 O 0.17370250075 0.40253500075000004 0.07191000125
 O1 O 0.07629749925 0.34746499925 0.17808999875
 O1 O 0.07629749925 0.34746499925 0.07191000125
 O1 O 0.17370250075 0.40253500075000004 0.17808999875
 O1 O 0.07629749925 0.40253500075000004 0.17808999875
 O1 O 0.17370250075 0.34746499925 0.07191000125
 O1 O 0.17370250075 0.34746499925 0.17808999875
 O1 O 0.07629749925 0.40253500075000004 0.07191000125
 O2 O 0.0773824975 0.28536500025 0.04322750125
 O2 O 0.1726175025 0.46463499975 0.20677249875
 O2 O 0.1726175025 0.46463499975 0.04322750125
 O2 O 0.0773824975 0.28536500025 0.20677249875
 O2 O 0.1726175025 0.28536500025 0.20677249875
 O2 O 0.0773824975 0.46463499975 0.04322750125
 O2 O 0.0773824975 0.46463499975 0.20677249875
 O2 O 0.1726175025 0.28536500025 0.04322750125
 O2 O 0.2023824975 0.41036500025 0.04322750125
 O2 O 0.0476175025 0.33963499975 0.20677249875
 O2 O 0.0476175025 0.33963499975 0.04322750125
 O2 O 0.2023824975 0.41036500025 0.20677249875
 O2 O 0.0476175025 0.41036500025 0.20677249875
 O2 O 0.2023824975 0.33963499975 0.04322750125
 O2 O 0.2023824975 0.33963499975 0.20677249875
 O2 O 0.0476175025 0.41036500025 0.04322750125
 O3 O 0.06933250275 0.25 0.05936750025
 O3 O 0.06933250275 0.5 0.05936750025
 O3 O 0.18066749725 0.25 0.19063249975
 O3 O 0.18066749725 0.5 0.19063249975
 O3 O 0.18066749725 0.25 0.05936750025
 O3 O 0.18066749725 0.5 0.05936750025
 O3 O 0.06933250275 0.25 0.19063249975
 O3 O 0.06933250275 0.5 0.19063249975
 O3 O 0.19433250275 0.375 0.05936750025
 O3 O 0.05566749725 0.375 0.19063249975
 O3 O 0.05566749725 0.375 0.05936750025
 O3 O 0.19433250275 0.375 0.19063249975
 O4 O 0.07323499775 0.27379499925 0.125
 O4 O 0.17676500225 0.47620500075 0.125
 O4 O 0.17676500225 0.27379499925 0.125
 O4 O 0.07323499775 0.47620500075 0.125
 O4 O 0.19823499775 0.39879499925 0.125
 O4 O 0.05176500225 0.35120500075 0.125
 O4 O 0.05176500225 0.39879499925 0.125
 O4 O 0.19823499775 0.35120500075 0.125
 O5 O 0.0281475 0.25 0.0590699985
 O5 O 0.0281475 0.5 0.0590699985
 O5 O 0.2218525 0.25 0.1909300015
 O5 O 0.2218525 0.5 0.1909300015
 O5 O 0.2218525 0.25 0.0590699985
 O5 O 0.2218525 0.5 0.0590699985
 O5 O 0.0281475 0.25 0.1909300015
 O5 O 0.0281475 0.5 0.1909300015
 O5 O 0.1531475 0.375 0.0590699985
 O5 O 0.0968525 0.375 0.1909300015
 O5 O 0.0968525 0.375 0.0590699985
 O5 O 0.1531475 0.375 0.1909300015
 O6 O 0.0241599995 0.2736249995 0.125
 O6 O 0.2258400005 0.47637500050000003 0.125
 O6 O 0.2258400005 0.2736249995 0.125
 O6 O 0.0241599995 0.47637500050000003 0.125
 O6 O 0.1491599995 0.39862499949999997 0.125
 O6 O 0.1008400005 0.35137500050000003 0.125
 O6 O 0.1008400005 0.39862499949999997 0.125
 O6 O 0.1491599995 0.35137500050000003 0.125
 O7 O 0.0198449995 0.28517999875 0.04336500175
 O7 O 0.2301550005 0.46482000125 0.20663499825
 O7 O 0.2301550005 0.46482000125 0.04336500175
 O7 O 0.0198449995 0.28517999875 0.20663499825
 O7 O 0.2301550005 0.28517999875 0.20663499825
 O7 O 0.0198449995 0.46482000125 0.04336500175
 O7 O 0.0198449995 0.46482000125 0.20663499825
 O7 O 0.2301550005 0.28517999875 0.04336500175
 O7 O 0.1448449995 0.41017999875 0.04336500175
 O7 O 0.1051550005 0.33982000125 0.20663499825
 O7 O 0.1051550005 0.33982000125 0.04336500175
 O7 O 0.1448449995 0.41017999875 0.20663499825
 O7 O 0.1051550005 0.41017999875 0.20663499825
 O7 O 0.1448449995 0.33982000125 0.04336500175
 O7 O 0.1448449995 0.33982000125 0.20663499825
 O7 O 0.1051550005 0.41017999875 0.04336500175
 O8 O 0.0625 0.3125 0.0
 O8 O 0.0625 0.3125 0.25
 O8 O 0.1875 0.4375 0.0
 O8 O 0.1875 0.4375 0.25
 O8 O 0.1875 0.3125 0.0
 O8 O 0.1875 0.3125 0.25
 O8 O 0.0625 0.4375 0.0
 O8 O 0.0625 0.4375 0.25
 O9 O 0.03091249975 0.31469249725 0.0
 O9 O 0.03091249975 0.31469249725 0.25
 O9 O 0.21908750025 0.43530750274999996 0.0
 O9 O 0.21908750025 0.43530750274999996 0.25
 O9 O 0.21908750025 0.31469249725 0.0
 O9 O 0.21908750025 0.31469249725 0.25
 O9 O 0.03091249975 0.43530750274999996 0.0
 O9 O 0.03091249975 0.43530750274999996 0.25
 O9 O 0.15591249975 0.43969249725000004 0.0
 O9 O 0.15591249975 0.43969249725000004 0.25
 O9 O 0.09408750025 0.31030750275 0.0
 O9 O 0.09408750025 0.31030750275 0.25
 O9 O 0.09408750025 0.43969249725000004 0.0
 O9 O 0.09408750025 0.43969249725000004 0.25
 O9 O 0.15591249975 0.31030750275 0.0
 O9 O 0.15591249975 0.31030750275 0.25
 O10 O 0.0 0.30657500025 0.0
 O10 O 0.0 0.30657500025 0.25
 O10 O 0.25 0.30657500025 0.0
 O10 O 0.25 0.30657500025 0.25
 O10 O 0.0 0.44342499975 0.0
 O10 O 0.0 0.44342499975 0.25
 O10 O 0.25 0.44342499975 0.0
 O10 O 0.25 0.44342499975 0.25
 O10 O 0.125 0.43157500025 0.0
 O10 O 0.125 0.43157500025 0.25
 O10 O 0.125 0.31842499975 0.0
 O10 O 0.125 0.31842499975 0.25
 O2 O 0.0476175025 0.33963499975 -0.04322750125
 O2 O 0.0476175025 0.33963499975 0.29322750125
 O2 O 0.2023824975 0.41036500025 -0.04322750125
 O2 O 0.2023824975 0.41036500025 0.29322750125
 O2 O 0.2023824975 0.33963499975 -0.04322750125
 O2 O 0.2023824975 0.33963499975 0.29322750125
 O2 O 0.0476175025 0.41036500025 -0.04322750125
 O2 O 0.0476175025 0.41036500025 0.29322750125
 O2 O 0.1726175025 0.46463499975 -0.04322750125
 O2 O 0.1726175025 0.46463499975 0.29322750125
 O2 O 0.0773824975 0.28536500025 -0.04322750125
 O2 O 0.0773824975 0.28536500025 0.29322750125
 O2 O 0.0773824975 0.46463499975 -0.04322750125
 O2 O 0.0773824975 0.46463499975 0.29322750125
 O2 O 0.1726175025 0.28536500025 -0.04322750125
 O2 O 0.1726175025 0.28536500025 0.29322750125
 O7 O 0.0198449995 0.28517999875 -0.04336500175
 O7 O 0.0198449995 0.28517999875 0.29336500175
 O7 O 0.2301550005 0.46482000125 -0.04336500175
 O7 O 0.2301550005 0.46482000125 0.29336500175
 O7 O 0.2301550005 0.28517999875 -0.04336500175
 O7 O 0.2301550005 0.28517999875 0.29336500175
 O7 O 0.0198449995 0.46482000125 -0.04336500175
 O7 O 0.0198449995 0.46482000125 0.29336500175
 O7 O 0.1448449995 0.41017999875 -0.04336500175
 O7 O 0.1448449995 0.41017999875 0.29336500175
 O7 O 0.1051550005 0.33982000125 -0.04336500175
 O7 O 0.1051550005 0.33982000125 0.29336500175
 O7 O 0.1051550005 0.41017999875 -0.04336500175
 O7 O 0.1051550005 0.41017999875 0.29336500175
 O7 O 0.1448449995 0.33982000125 -0.04336500175
 O7 O 0.1448449995 0.33982000125 0.29336500175
 Si1 Si 0.3172350005 0.27160999925 0.0748350025
 Si1 Si 0.4327649995 0.47839000075 0.1751649975
 Si1 Si 0.4327649995 0.47839000075 0.0748350025
 Si1 Si 0.3172350005 0.27160999925 0.1751649975
 Si1 Si 0.4327649995 0.27160999925 0.1751649975
 Si1 Si 0.3172350005 0.47839000075 0.0748350025
 Si1 Si 0.3172350005 0.47839000075 0.1751649975
 Si1 Si 0.4327649995 0.27160999925 0.0748350025
 Si1 Si 0.4422350005 0.39660999925 0.0748350025
 Si1 Si 0.3077649995 0.35339000075 0.1751649975
 Si1 Si 0.3077649995 0.35339000075 0.0748350025
 Si1 Si 0.4422350005 0.39660999925 0.1751649975
 Si1 Si 0.3077649995 0.39660999925 0.1751649975
 Si1 Si 0.4422350005 0.35339000075 0.0748350025
 Si1 Si 0.4422350005 0.35339000075 0.1751649975
 Si1 Si 0.3077649995 0.39660999925 0.0748350025
 Si2 Si 0.28017999975 0.27157500025 0.074832499
 Si2 Si 0.46982000025000004 0.47842499974999997 0.175167501
 Si2 Si 0.46982000025000004 0.47842499974999997 0.074832499
 Si2 Si 0.28017999975 0.27157500025 0.175167501
 Si2 Si 0.46982000025000004 0.27157500025 0.175167501
 Si2 Si 0.28017999975 0.47842499974999997 0.074832499
 Si2 Si 0.28017999975 0.47842499974999997 0.175167501
 Si2 Si 0.46982000025000004 0.27157500025 0.074832499
 Si2 Si 0.40517999974999996 0.39657500025000003 0.074832499
 Si2 Si 0.34482000025 0.35342499974999997 0.175167501
 Si2 Si 0.34482000025 0.35342499974999997 0.074832499
 Si2 Si 0.40517999974999996 0.39657500025000003 0.175167501
 Si2 Si 0.34482000025 0.39657500025000003 0.175167501
 Si2 Si 0.40517999974999996 0.35342499974999997 0.074832499
 Si2 Si 0.40517999974999996 0.35342499974999997 0.175167501
 Si2 Si 0.34482000025 0.39657500025000003 0.074832499
 Si3 Si 0.297362499 0.32644499849999997 0.0
 Si3 Si 0.297362499 0.32644499849999997 0.25
 Si3 Si 0.452637501 0.42355500150000003 0.0
 Si3 Si 0.452637501 0.42355500150000003 0.25
 Si3 Si 0.452637501 0.32644499849999997 0.0
 Si3 Si 0.452637501 0.32644499849999997 0.25
 Si3 Si 0.297362499 0.42355500150000003 0.0
 Si3 Si 0.297362499 0.42355500150000003 0.25
 Si3 Si 0.422362499 0.45144499849999997 0.0
 Si3 Si 0.422362499 0.45144499849999997 0.25
 Si3 Si 0.327637501 0.29855500150000003 0.0
 Si3 Si 0.327637501 0.29855500150000003 0.25
 Si3 Si 0.327637501 0.45144499849999997 0.0
 Si3 Si 0.327637501 0.45144499849999997 0.25
 Si3 Si 0.422362499 0.29855500150000003 0.0
 Si3 Si 0.422362499 0.29855500150000003 0.25
 Si4 Si 0.26785499975 0.29804499824999997 0.0
 Si4 Si 0.26785499975 0.29804499824999997 0.25
 Si4 Si 0.48214500025 0.45195500175000003 0.0
 Si4 Si 0.48214500025 0.45195500175000003 0.25
 Si4 Si 0.48214500025 0.29804499824999997 0.0
 Si4 Si 0.48214500025 0.29804499824999997 0.25
 Si4 Si 0.26785499975 0.45195500175000003 0.0
 Si4 Si 0.26785499975 0.45195500175000003 0.25
 Si4 Si 0.39285499975 0.42304499824999997 0.0
 Si4 Si 0.39285499975 0.42304499824999997 0.25
 Si4 Si 0.35714500025 0.32695500175000003 0.0
 Si4 Si 0.35714500025 0.32695500175000003 0.25
 Si4 Si 0.35714500025 0.42304499824999997 0.0
 Si4 Si 0.35714500025 0.42304499824999997 0.25
 Si4 Si 0.39285499975 0.32695500175000003 0.0
 Si4 Si 0.39285499975 0.32695500175000003 0.25
 O1 O 0.29870250075 0.27753500075 0.07191000125
 O1 O 0.45129749925 0.47246499924999996 0.17808999875
 O1 O 0.45129749925 0.47246499924999996 0.07191000125
 O1 O 0.29870250075 0.27753500075 0.17808999875
 O1 O 0.45129749925 0.27753500075 0.17808999875
 O1 O 0.29870250075 0.47246499924999996 0.07191000125
 O1 O 0.29870250075 0.47246499924999996 0.17808999875
 O1 O 0.45129749925 0.27753500075 0.07191000125
 O1 O 0.42370250075 0.40253500075000004 0.07191000125
 O1 O 0.32629749925 0.34746499925 0.17808999875
 O1 O 0.32629749925 0.34746499925 0.07191000125
 O1 O 0.42370250075 0.40253500075000004 0.17808999875
 O1 O 0.32629749925 0.40253500075000004 0.17808999875
 O1 O 0.42370250075 0.34746499925 0.07191000125
 O1 O 0.42370250075 0.34746499925 0.17808999875
 O1 O 0.32629749925 0.40253500075000004 0.07191000125
 O2 O 0.3273824975 0.28536500025 0.04322750125
 O2 O 0.42261750249999996 0.46463499975 0.20677249875
 O2 O 0.42261750249999996 0.46463499975 0.04322750125
 O2 O 0.3273824975 0.28536500025 0.20677249875
 O2 O 0.42261750249999996 0.28536500025 0.20677249875
 O2 O 0.3273824975 0.46463499975 0.04322750125
 O2 O 0.3273824975 0.46463499975 0.20677249875
 O2 O 0.42261750249999996 0.28536500025 0.04322750125
 O2 O 0.45238249750000004 0.41036500025 0.04322750125
 O2 O 0.2976175025 0.33963499975 0.20677249875
 O2 O 0.2976175025 0.33963499975 0.04322750125
 O2 O 0.45238249750000004 0.41036500025 0.20677249875
 O2 O 0.2976175025 0.41036500025 0.20677249875
 O2 O 0.45238249750000004 0.33963499975 0.04322750125
 O2 O 0.45238249750000004 0.33963499975 0.20677249875
 O2 O 0.2976175025 0.41036500025 0.04322750125
 O3 O 0.31933250275 0.25 0.05936750025
 O3 O 0.31933250275 0.5 0.05936750025
 O3 O 0.43066749725 0.25 0.19063249975
 O3 O 0.43066749725 0.5 0.19063249975
 O3 O 0.43066749725 0.25 0.05936750025
 O3 O 0.43066749725 0.5 0.05936750025
 O3 O 0.31933250275 0.25 0.19063249975
 O3 O 0.31933250275 0.5 0.19063249975
 O3 O 0.44433250275 0.375 0.05936750025
 O3 O 0.30566749725 0.375 0.19063249975
 O3 O 0.30566749725 0.375 0.05936750025
 O3 O 0.44433250275 0.375 0.19063249975
 O4 O 0.32323499775 0.27379499925 0.125
 O4 O 0.42676500225 0.47620500075 0.125
 O4 O 0.42676500225 0.27379499925 0.125
 O4 O 0.32323499775 0.47620500075 0.125
 O4 O 0.44823499775 0.39879499925 0.125
 O4 O 0.30176500225 0.35120500075 0.125
 O4 O 0.30176500225 0.39879499925 0.125
 O4 O 0.44823499775 0.35120500075 0.125
 O5 O 0.2781475 0.25 0.0590699985
 O5 O 0.2781475 0.5 0.0590699985
 O5 O 0.4718525 0.25 0.1909300015
 O5 O 0.4718525 0.5 0.1909300015
 O5 O 0.4718525 0.25 0.0590699985
 O5 O 0.4718525 0.5 0.0590699985
 O5 O 0.2781475 0.25 0.1909300015
 O5 O 0.2781475 0.5 0.1909300015
 O5 O 0.4031475 0.375 0.0590699985
 O5 O 0.3468525 0.375 0.1909300015
 O5 O 0.3468525 0.375 0.0590699985
 O5 O 0.4031475 0.375 0.1909300015
 O6 O 0.27415999950000003 0.2736249995 0.125
 O6 O 0.47584000049999997 0.47637500050000003 0.125
 O6 O 0.47584000049999997 0.2736249995 0.125
 O6 O 0.27415999950000003 0.47637500050000003 0.125
 O6 O 0.39915999950000003 0.39862499949999997 0.125
 O6 O 0.35084000049999997 0.35137500050000003 0.125
 O6 O 0.35084000049999997 0.39862499949999997 0.125
 O6 O 0.39915999950000003 0.35137500050000003 0.125
 O7 O 0.2698449995 0.28517999875 0.04336500175
 O7 O 0.48015500050000004 0.46482000125 0.20663499825
 O7 O 0.48015500050000004 0.46482000125 0.04336500175
 O7 O 0.2698449995 0.28517999875 0.20663499825
 O7 O 0.48015500050000004 0.28517999875 0.20663499825
 O7 O 0.2698449995 0.46482000125 0.04336500175
 O7 O 0.2698449995 0.46482000125 0.20663499825
 O7 O 0.48015500050000004 0.28517999875 0.04336500175
 O7 O 0.39484499949999996 0.41017999875 0.04336500175
 O7 O 0.3551550005 0.33982000125 0.20663499825
 O7 O 0.3551550005 0.33982000125 0.04336500175
 O7 O 0.39484499949999996 0.41017999875 0.20663499825
 O7 O 0.3551550005 0.41017999875 0.20663499825
 O7 O 0.39484499949999996 0.33982000125 0.04336500175
 O7 O 0.39484499949999996 0.33982000125 0.20663499825
 O7 O 0.3551550005 0.41017999875 0.04336500175
 O8 O 0.3125 0.3125 0.0
 O8 O 0.3125 0.3125 0.25
 O8 O 0.4375 0.4375 0.0
 O8 O 0.4375 0.4375 0.25
 O8 O 0.4375 0.3125 0.0
 O8 O 0.4375 0.3125 0.25
 O8 O 0.3125 0.4375 0.0
 O8 O 0.3125 0.4375 0.25
 O9 O 0.28091249975 0.31469249725 0.0
 O9 O 0.28091249975 0.31469249725 0.25
 O9 O 0.46908750025 0.43530750274999996 0.0
 O9 O 0.46908750025 0.43530750274999996 0.25
 O9 O 0.46908750025 0.31469249725 0.0
 O9 O 0.46908750025 0.31469249725 0.25
 O9 O 0.28091249975 0.43530750274999996 0.0
 O9 O 0.28091249975 0.43530750274999996 0.25
 O9 O 0.40591249975 0.43969249725000004 0.0
 O9 O 0.40591249975 0.43969249725000004 0.25
 O9 O 0.34408750025 0.31030750275 0.0
 O9 O 0.34408750025 0.31030750275 0.25
 O9 O 0.34408750025 0.43969249725000004 0.0
 O9 O 0.34408750025 0.43969249725000004 0.25
 O9 O 0.40591249975 0.31030750275 0.0
 O9 O 0.40591249975 0.31030750275 0.25
 O10 O 0.25 0.30657500025 0.0
 O10 O 0.25 0.30657500025 0.25
 O10 O 0.5 0.30657500025 0.0
 O10 O 0.5 0.30657500025 0.25
 O10 O 0.25 0.44342499975 0.0
 O10 O 0.25 0.44342499975 0.25
 O10 O 0.5 0.44342499975 0.0
 O10 O 0.5 0.44342499975 0.25
 O10 O 0.375 0.43157500025 0.0
 O10 O 0.375 0.43157500025 0.25
 O10 O 0.375 0.31842499975 0.0
 O10 O 0.375 0.31842499975 0.25
 O2 O 0.2976175025 0.33963499975 -0.04322750125
 O2 O 0.2976175025 0.33963499975 0.29322750125
 O2 O 0.45238249750000004 0.41036500025 -0.04322750125
 O2 O 0.45238249750000004 0.41036500025 0.29322750125
 O2 O 0.45238249750000004 0.33963499975 -0.04322750125
 O2 O 0.45238249750000004 0.33963499975 0.29322750125
 O2 O 0.2976175025 0.41036500025 -0.04322750125
 O2 O 0.2976175025 0.41036500025 0.29322750125
 O2 O 0.42261750249999996 0.46463499975 -0.04322750125
 O2 O 0.42261750249999996 0.46463499975 0.29322750125
 O2 O 0.3273824975 0.28536500025 -0.04322750125
 O2 O 0.3273824975 0.28536500025 0.29322750125
 O2 O 0.3273824975 0.46463499975 -0.04322750125
 O2 O 0.3273824975 0.46463499975 0.29322750125
 O2 O 0.42261750249999996 0.28536500025 -0.04322750125
 O2 O 0.42261750249999996 0.28536500025 0.29322750125
 O7 O 0.2698449995 0.28517999875 -0.04336500175
 O7 O 0.2698449995 0.28517999875 0.29336500175
 O7 O 0.48015500050000004 0.46482000125 -0.04336500175
 O7 O 0.48015500050000004 0.46482000125 0.29336500175
 O7 O 0.48015500050000004 0.28517999875 -0.04336500175
 O7 O 0.48015500050000004 0.28517999875 0.29336500175
 O7 O 0.2698449995 0.46482000125 -0.04336500175
 O7 O 0.2698449995 0.46482000125 0.29336500175
 O7 O 0.39484499949999996 0.41017999875 -0.04336500175
 O7 O 0.39484499949999996 0.41017999875 0.29336500175
 O7 O 0.3551550005 0.33982000125 -0.04336500175
 O7 O 0.3551550005 0.33982000125 0.29336500175
 O7 O 0.3551550005 0.41017999875 -0.04336500175
 O7 O 0.3551550005 0.41017999875 0.29336500175
 O7 O 0.39484499949999996 0.33982000125 -0.04336500175
 O7 O 0.39484499949999996 0.33982000125 0.29336500175
 Si1 Si 0.5672350005 0.27160999925 0.0748350025
 Si1 Si 0.6827649995 0.47839000075 0.1751649975
 Si1 Si 0.6827649995 0.47839000075 0.0748350025
 Si1 Si 0.5672350005 0.27160999925 0.1751649975
 Si1 Si 0.6827649995 0.27160999925 0.1751649975
 Si1 Si 0.5672350005 0.47839000075 0.0748350025
 Si1 Si 0.5672350005 0.47839000075 0.1751649975
 Si1 Si 0.6827649995 0.27160999925 0.0748350025
 Si1 Si 0.6922350005 0.39660999925 0.0748350025
 Si1 Si 0.5577649995 0.35339000075 0.1751649975
 Si1 Si 0.5577649995 0.35339000075 0.0748350025
 Si1 Si 0.6922350005 0.39660999925 0.1751649975
 Si1 Si 0.5577649995 0.39660999925 0.1751649975
 Si1 Si 0.6922350005 0.35339000075 0.0748350025
 Si1 Si 0.6922350005 0.35339000075 0.1751649975
 Si1 Si 0.5577649995 0.39660999925 0.0748350025
 Si2 Si 0.5301799997500001 0.27157500025 0.074832499
 Si2 Si 0.71982000025 0.47842499974999997 0.175167501
 Si2 Si 0.71982000025 0.47842499974999997 0.074832499
 Si2 Si 0.5301799997500001 0.27157500025 0.175167501
 Si2 Si 0.71982000025 0.27157500025 0.175167501
 Si2 Si 0.5301799997500001 0.47842499974999997 0.074832499
 Si2 Si 0.5301799997500001 0.47842499974999997 0.175167501
 Si2 Si 0.71982000025 0.27157500025 0.074832499
 Si2 Si 0.65517999975 0.39657500025000003 0.074832499
 Si2 Si 0.5948200002499999 0.35342499974999997 0.175167501
 Si2 Si 0.5948200002499999 0.35342499974999997 0.074832499
 Si2 Si 0.65517999975 0.39657500025000003 0.175167501
 Si2 Si 0.5948200002499999 0.39657500025000003 0.175167501
 Si2 Si 0.65517999975 0.35342499974999997 0.074832499
 Si2 Si 0.65517999975 0.35342499974999997 0.175167501
 Si2 Si 0.5948200002499999 0.39657500025000003 0.074832499
 Si3 Si 0.547362499 0.32644499849999997 0.0
 Si3 Si 0.547362499 0.32644499849999997 0.25
 Si3 Si 0.702637501 0.42355500150000003 0.0
 Si3 Si 0.702637501 0.42355500150000003 0.25
 Si3 Si 0.702637501 0.32644499849999997 0.0
 Si3 Si 0.702637501 0.32644499849999997 0.25
 Si3 Si 0.547362499 0.42355500150000003 0.0
 Si3 Si 0.547362499 0.42355500150000003 0.25
 Si3 Si 0.672362499 0.45144499849999997 0.0
 Si3 Si 0.672362499 0.45144499849999997 0.25
 Si3 Si 0.577637501 0.29855500150000003 0.0
 Si3 Si 0.577637501 0.29855500150000003 0.25
 Si3 Si 0.577637501 0.45144499849999997 0.0
 Si3 Si 0.577637501 0.45144499849999997 0.25
 Si3 Si 0.672362499 0.29855500150000003 0.0
 Si3 Si 0.672362499 0.29855500150000003 0.25
 Si4 Si 0.5178549997499999 0.29804499824999997 0.0
 Si4 Si 0.5178549997499999 0.29804499824999997 0.25
 Si4 Si 0.7321450002500001 0.45195500175000003 0.0
 Si4 Si 0.7321450002500001 0.45195500175000003 0.25
 Si4 Si 0.7321450002500001 0.29804499824999997 0.0
 Si4 Si 0.7321450002500001 0.29804499824999997 0.25
 Si4 Si 0.5178549997499999 0.45195500175000003 0.0
 Si4 Si 0.5178549997499999 0.45195500175000003 0.25
 Si4 Si 0.6428549997499999 0.42304499824999997 0.0
 Si4 Si 0.6428549997499999 0.42304499824999997 0.25
 Si4 Si 0.6071450002500001 0.32695500175000003 0.0
 Si4 Si 0.6071450002500001 0.32695500175000003 0.25
 Si4 Si 0.6071450002500001 0.42304499824999997 0.0
 Si4 Si 0.6071450002500001 0.42304499824999997 0.25
 Si4 Si 0.6428549997499999 0.32695500175000003 0.0
 Si4 Si 0.6428549997499999 0.32695500175000003 0.25
 O1 O 0.5487025007499999 0.27753500075 0.07191000125
 O1 O 0.7012974992500001 0.47246499924999996 0.17808999875
 O1 O 0.7012974992500001 0.47246499924999996 0.07191000125
 O1 O 0.5487025007499999 0.27753500075 0.17808999875
 O1 O 0.7012974992500001 0.27753500075 0.17808999875
 O1 O 0.5487025007499999 0.47246499924999996 0.07191000125
 O1 O 0.5487025007499999 0.47246499924999996 0.17808999875
 O1 O 0.7012974992500001 0.27753500075 0.07191000125
 O1 O 0.6737025007499999 0.40253500075000004 0.07191000125
 O1 O 0.5762974992500001 0.34746499925 0.17808999875
 O1 O 0.5762974992500001 0.34746499925 0.07191000125
 O1 O 0.6737025007499999 0.40253500075000004 0.17808999875
 O1 O 0.5762974992500001 0.40253500075000004 0.17808999875
 O1 O 0.6737025007499999 0.34746499925 0.07191000125
 O1 O 0.6737025007499999 0.34746499925 0.17808999875
 O1 O 0.5762974992500001 0.40253500075000004 0.07191000125
 O2 O 0.5773824974999999 0.28536500025 0.04322750125
 O2 O 0.6726175025 0.46463499975 0.20677249875
 O2 O 0.6726175025 0.46463499975 0.04322750125
 O2 O 0.5773824974999999 0.28536500025 0.20677249875
 O2 O 0.6726175025 0.28536500025 0.20677249875
 O2 O 0.5773824974999999 0.46463499975 0.04322750125
 O2 O 0.5773824974999999 0.46463499975 0.20677249875
 O2 O 0.6726175025 0.28536500025 0.04322750125
 O2 O 0.7023824975 0.41036500025 0.04322750125
 O2 O 0.5476175025000001 0.33963499975 0.20677249875
 O2 O 0.5476175025000001 0.33963499975 0.04322750125
 O2 O 0.7023824975 0.41036500025 0.20677249875
 O2 O 0.5476175025000001 0.41036500025 0.20677249875
 O2 O 0.7023824975 0.33963499975 0.04322750125
 O2 O 0.7023824975 0.33963499975 0.20677249875
 O2 O 0.5476175025000001 0.41036500025 0.04322750125
 O3 O 0.56933250275 0.25 0.05936750025
 O3 O 0.56933250275 0.5 0.05936750025
 O3 O 0.68066749725 0.25 0.19063249975
 O3 O 0.68066749725 0.5 0.19063249975
 O3 O 0.68066749725 0.25 0.05936750025
 O3 O 0.68066749725 0.5 0.05936750025
 O3 O 0.56933250275 0.25 0.19063249975
 O3 O 0.56933250275 0.5 0.19063249975
 O3 O 0.69433250275 0.375 0.05936750025
 O3 O 0.55566749725 0.375 0.19063249975
 O3 O 0.55566749725 0.375 0.05936750025
 O3 O 0.69433250275 0.375 0.19063249975
 O4 O 0.57323499775 0.27379499925 0.125
 O4 O 0.67676500225 0.47620500075 0.125
 O4 O 0.67676500225 0.27379499925 0.125
 O4 O 0.57323499775 0.47620500075 0.125
 O4 O 0.69823499775 0.39879499925 0.125
 O4 O 0.55176500225 0.35120500075 0.125
 O4 O 0.55176500225 0.39879499925 0.125
 O4 O 0.69823499775 0.35120500075 0.125
 O5 O 0.5281475 0.25 0.0590699985
 O5 O 0.5281475 0.5 0.0590699985
 O5 O 0.7218525 0.25 0.1909300015
 O5 O 0.7218525 0.5 0.1909300015
 O5 O 0.7218525 0.25 0.0590699985
 O5 O 0.7218525 0.5 0.0590699985
 O5 O 0.5281475 0.25 0.1909300015
 O5 O 0.5281475 0.5 0.1909300015
 O5 O 0.6531475 0.375 0.0590699985
 O5 O 0.5968525 0.375 0.1909300015
 O5 O 0.5968525 0.375 0.0590699985
 O5 O 0.6531475 0.375 0.1909300015
 O6 O 0.5241599995 0.2736249995 0.125
 O6 O 0.7258400005 0.47637500050000003 0.125
 O6 O 0.7258400005 0.2736249995 0.125
 O6 O 0.5241599995 0.47637500050000003 0.125
 O6 O 0.6491599995 0.39862499949999997 0.125
 O6 O 0.6008400005 0.35137500050000003 0.125
 O6 O 0.6008400005 0.39862499949999997 0.125
 O6 O 0.6491599995 0.35137500050000003 0.125
 O7 O 0.5198449995000001 0.28517999875 0.04336500175
 O7 O 0.7301550005 0.46482000125 0.20663499825
 O7 O 0.7301550005 0.46482000125 0.04336500175
 O7 O 0.5198449995000001 0.28517999875 0.20663499825
 O7 O 0.7301550005 0.28517999875 0.20663499825
 O7 O 0.5198449995000001 0.46482000125 0.04336500175
 O7 O 0.5198449995000001 0.46482000125 0.20663499825
 O7 O 0.7301550005 0.28517999875 0.04336500175
 O7 O 0.6448449995 0.41017999875 0.04336500175
 O7 O 0.6051550004999999 0.33982000125 0.20663499825
 O7 O 0.6051550004999999 0.33982000125 0.04336500175
 O7 O 0.6448449995 0.41017999875 0.20663499825
 O7 O 0.6051550004999999 0.41017999875 0.20663499825
 O7 O 0.6448449995 0.33982000125 0.04336500175
 O7 O 0.6448449995 0.33982000125 0.20663499825
 O7 O 0.6051550004999999 0.41017999875 0.04336500175
 O8 O 0.5625 0.3125 0.0
 O8 O 0.5625 0.3125 0.25
 O8 O 0.6875 0.4375 0.0
 O8 O 0.6875 0.4375 0.25
 O8 O 0.6875 0.3125 0.0
 O8 O 0.6875 0.3125 0.25
 O8 O 0.5625 0.4375 0.0
 O8 O 0.5625 0.4375 0.25
 O9 O 0.53091249975 0.31469249725 0.0
 O9 O 0.53091249975 0.31469249725 0.25
 O9 O 0.71908750025 0.43530750274999996 0.0
 O9 O 0.71908750025 0.43530750274999996 0.25
 O9 O 0.71908750025 0.31469249725 0.0
 O9 O 0.71908750025 0.31469249725 0.25
 O9 O 0.53091249975 0.43530750274999996 0.0
 O9 O 0.53091249975 0.43530750274999996 0.25
 O9 O 0.65591249975 0.43969249725000004 0.0
 O9 O 0.65591249975 0.43969249725000004 0.25
 O9 O 0.59408750025 0.31030750275 0.0
 O9 O 0.59408750025 0.31030750275 0.25
 O9 O 0.59408750025 0.43969249725000004 0.0
 O9 O 0.59408750025 0.43969249725000004 0.25
 O9 O 0.65591249975 0.31030750275 0.0
 O9 O 0.65591249975 0.31030750275 0.25
 O10 O 0.5 0.30657500025 0.0
 O10 O 0.5 0.30657500025 0.25
 O10 O 0.75 0.30657500025 0.0
 O10 O 0.75 0.30657500025 0.25
 O10 O 0.5 0.44342499975 0.0
 O10 O 0.5 0.44342499975 0.25
 O10 O 0.75 0.44342499975 0.0
 O10 O 0.75 0.44342499975 0.25
 O10 O 0.625 0.43157500025 0.0
 O10 O 0.625 0.43157500025 0.25
 O10 O 0.625 0.31842499975 0.0
 O10 O 0.625 0.31842499975 0.25
 O2 O 0.5476175025000001 0.33963499975 -0.04322750125
 O2 O 0.5476175025000001 0.33963499975 0.29322750125
 O2 O 0.7023824975 0.41036500025 -0.04322750125
 O2 O 0.7023824975 0.41036500025 0.29322750125
 O2 O 0.7023824975 0.33963499975 -0.04322750125
 O2 O 0.7023824975 0.33963499975 0.29322750125
 O2 O 0.5476175025000001 0.41036500025 -0.04322750125
 O2 O 0.5476175025000001 0.41036500025 0.29322750125
 O2 O 0.6726175025 0.46463499975 -0.04322750125
 O2 O 0.6726175025 0.46463499975 0.29322750125
 O2 O 0.5773824974999999 0.28536500025 -0.04322750125
 O2 O 0.5773824974999999 0.28536500025 0.29322750125
 O2 O 0.5773824974999999 0.46463499975 -0.04322750125
 O2 O 0.5773824974999999 0.46463499975 0.29322750125
 O2 O 0.6726175025 0.28536500025 -0.04322750125
 O2 O 0.6726175025 0.28536500025 0.29322750125
 O7 O 0.5198449995000001 0.28517999875 -0.04336500175
 O7 O 0.5198449995000001 0.28517999875 0.29336500175
 O7 O 0.7301550005 0.46482000125 -0.04336500175
 O7 O 0.7301550005 0.46482000125 0.29336500175
 O7 O 0.7301550005 0.28517999875 -0.04336500175
 O7 O 0.7301550005 0.28517999875 0.29336500175
 O7 O 0.5198449995000001 0.46482000125 -0.04336500175
 O7 O 0.5198449995000001 0.46482000125 0.29336500175
 O7 O 0.6448449995 0.41017999875 -0.04336500175
 O7 O 0.6448449995 0.41017999875 0.29336500175
 O7 O 0.6051550004999999 0.33982000125 -0.04336500175
 O7 O 0.6051550004999999 0.33982000125 0.29336500175
 O7 O 0.6051550004999999 0.41017999875 -0.04336500175
 O7 O 0.6051550004999999 0.41017999875 0.29336500175
 O7 O 0.6448449995 0.33982000125 -0.04336500175
 O7 O 0.6448449995 0.33982000125 0.29336500175
 Si1 Si 0.8172350005 0.27160999925 0.0748350025
 Si1 Si 0.9327649995 0.47839000075 0.1751649975
 Si1 Si 0.9327649995 0.47839000075 0.0748350025
 Si1 Si 0.8172350005 0.27160999925 0.1751649975
 Si1 Si 0.9327649995 0.27160999925 0.1751649975
 Si1 Si 0.8172350005 0.47839000075 0.0748350025
 Si1 Si 0.8172350005 0.47839000075 0.1751649975
 Si1 Si 0.9327649995 0.27160999925 0.0748350025
 Si1 Si 0.9422350005 0.39660999925 0.0748350025
 Si1 Si 0.8077649995 0.35339000075 0.1751649975
 Si1 Si 0.8077649995 0.35339000075 0.0748350025
 Si1 Si 0.9422350005 0.39660999925 0.1751649975
 Si1 Si 0.8077649995 0.39660999925 0.1751649975
 Si1 Si 0.9422350005 0.35339000075 0.0748350025
 Si1 Si 0.9422350005 0.35339000075 0.1751649975
 Si1 Si 0.8077649995 0.39660999925 0.0748350025
 Si2 Si 0.7801799997500001 0.27157500025 0.074832499
 Si2 Si 0.96982000025 0.47842499974999997 0.175167501
 Si2 Si 0.96982000025 0.47842499974999997 0.074832499
 Si2 Si 0.7801799997500001 0.27157500025 0.175167501
 Si2 Si 0.96982000025 0.27157500025 0.175167501
 Si2 Si 0.7801799997500001 0.47842499974999997 0.074832499
 Si2 Si 0.7801799997500001 0.47842499974999997 0.175167501
 Si2 Si 0.96982000025 0.27157500025 0.074832499
 Si2 Si 0.90517999975 0.39657500025000003 0.074832499
 Si2 Si 0.8448200002499999 0.35342499974999997 0.175167501
 Si2 Si 0.8448200002499999 0.35342499974999997 0.074832499
 Si2 Si 0.90517999975 0.39657500025000003 0.175167501
 Si2 Si 0.8448200002499999 0.39657500025000003 0.175167501
 Si2 Si 0.90517999975 0.35342499974999997 0.074832499
 Si2 Si 0.90517999975 0.35342499974999997 0.175167501
 Si2 Si 0.8448200002499999 0.39657500025000003 0.074832499
 Si3 Si 0.797362499 0.32644499849999997 0.0
 Si3 Si 0.797362499 0.32644499849999997 0.25
 Si3 Si 0.952637501 0.42355500150000003 0.0
 Si3 Si 0.952637501 0.42355500150000003 0.25
 Si3 Si 0.952637501 0.32644499849999997 0.0
 Si3 Si 0.952637501 0.32644499849999997 0.25
 Si3 Si 0.797362499 0.42355500150000003 0.0
 Si3 Si 0.797362499 0.42355500150000003 0.25
 Si3 Si 0.922362499 0.45144499849999997 0.0
 Si3 Si 0.922362499 0.45144499849999997 0.25
 Si3 Si 0.827637501 0.29855500150000003 0.0
 Si3 Si 0.827637501 0.29855500150000003 0.25
 Si3 Si 0.827637501 0.45144499849999997 0.0
 Si3 Si 0.827637501 0.45144499849999997 0.25
 Si3 Si 0.922362499 0.29855500150000003 0.0
 Si3 Si 0.922362499 0.29855500150000003 0.25
 Si4 Si 0.7678549997499999 0.29804499824999997 0.0
 Si4 Si 0.7678549997499999 0.29804499824999997 0.25
 Si4 Si 0.9821450002500001 0.45195500175000003 0.0
 Si4 Si 0.9821450002500001 0.45195500175000003 0.25
 Si4 Si 0.9821450002500001 0.29804499824999997 0.0
 Si4 Si 0.9821450002500001 0.29804499824999997 0.25
 Si4 Si 0.7678549997499999 0.45195500175000003 0.0
 Si4 Si 0.7678549997499999 0.45195500175000003 0.25
 Si4 Si 0.8928549997499999 0.42304499824999997 0.0
 Si4 Si 0.8928549997499999 0.42304499824999997 0.25
 Si4 Si 0.8571450002500001 0.32695500175000003 0.0
 Si4 Si 0.8571450002500001 0.32695500175000003 0.25
 Si4 Si 0.8571450002500001 0.42304499824999997 0.0
 Si4 Si 0.8571450002500001 0.42304499824999997 0.25
 Si4 Si 0.8928549997499999 0.32695500175000003 0.0
 Si4 Si 0.8928549997499999 0.32695500175000003 0.25
 O1 O 0.7987025007499999 0.27753500075 0.07191000125
 O1 O 0.9512974992500001 0.47246499924999996 0.17808999875
 O1 O 0.9512974992500001 0.47246499924999996 0.07191000125
 O1 O 0.7987025007499999 0.27753500075 0.17808999875
 O1 O 0.9512974992500001 0.27753500075 0.17808999875
 O1 O 0.7987025007499999 0.47246499924999996 0.07191000125
 O1 O 0.7987025007499999 0.47246499924999996 0.17808999875
 O1 O 0.9512974992500001 0.27753500075 0.07191000125
 O1 O 0.9237025007499999 0.40253500075000004 0.07191000125
 O1 O 0.8262974992500001 0.34746499925 0.17808999875
 O1 O 0.8262974992500001 0.34746499925 0.07191000125
 O1 O 0.9237025007499999 0.40253500075000004 0.17808999875
 O1 O 0.8262974992500001 0.40253500075000004 0.17808999875
 O1 O 0.9237025007499999 0.34746499925 0.07191000125
 O1 O 0.9237025007499999 0.34746499925 0.17808999875
 O1 O 0.8262974992500001 0.40253500075000004 0.07191000125
 O2 O 0.8273824974999999 0.28536500025 0.04322750125
 O2 O 0.9226175025 0.46463499975 0.20677249875
 O2 O 0.9226175025 0.46463499975 0.04322750125
 O2 O 0.8273824974999999 0.28536500025 0.20677249875
 O2 O 0.9226175025 0.28536500025 0.20677249875
 O2 O 0.8273824974999999 0.46463499975 0.04322750125
 O2 O 0.8273824974999999 0.46463499975 0.20677249875
 O2 O 0.9226175025 0.28536500025 0.04322750125
 O2 O 0.9523824975 0.41036500025 0.04322750125
 O2 O 0.7976175025000001 0.33963499975 0.20677249875
 O2 O 0.7976175025000001 0.33963499975 0.04322750125
 O2 O 0.9523824975 0.41036500025 0.20677249875
 O2 O 0.7976175025000001 0.41036500025 0.20677249875
 O2 O 0.9523824975 0.33963499975 0.04322750125
 O2 O 0.9523824975 0.33963499975 0.20677249875
 O2 O 0.7976175025000001 0.41036500025 0.04322750125
 O3 O 0.81933250275 0.25 0.05936750025
 O3 O 0.81933250275 0.5 0.05936750025
 O3 O 0.93066749725 0.25 0.19063249975
 O3 O 0.93066749725 0.5 0.19063249975
 O3 O 0.93066749725 0.25 0.05936750025
 O3 O 0.93066749725 0.5 0.05936750025
 O3 O 0.81933250275 0.25 0.19063249975
 O3 O 0.81933250275 0.5 0.19063249975
 O3 O 0.94433250275 0.375 0.05936750025
 O3 O 0.80566749725 0.375 0.19063249975
 O3 O 0.80566749725 0.375 0.05936750025
 O3 O 0.94433250275 0.375 0.19063249975
 O4 O 0.82323499775 0.27379499925 0.125
 O4 O 0.92676500225 0.47620500075 0.125
 O4 O 0.92676500225 0.27379499925 0.125
 O4 O 0.82323499775 0.47620500075 0.125
 O4 O 0.94823499775 0.39879499925 0.125
 O4 O 0.80176500225 0.35120500075 0.125
 O4 O 0.80176500225 0.39879499925 0.125
 O4 O 0.94823499775 0.35120500075 0.125
 O5 O 0.7781475 0.25 0.0590699985
 O5 O 0.7781475 0.5 0.0590699985
 O5 O 0.9718525 0.25 0.1909300015
 O5 O 0.9718525 0.5 0.1909300015
 O5 O 0.9718525 0.25 0.0590699985
 O5 O 0.9718525 0.5 0.0590699985
 O5 O 0.7781475 0.25 0.1909300015
 O5 O 0.7781475 0.5 0.1909300015
 O5 O 0.9031475 0.375 0.0590699985
 O5 O 0.8468525 0.375 0.1909300015
 O5 O 0.8468525 0.375 0.0590699985
 O5 O 0.9031475 0.375 0.1909300015
 O6 O 0.7741599995 0.2736249995 0.125
 O6 O 0.9758400005 0.47637500050000003 0.125
 O6 O 0.9758400005 0.2736249995 0.125
 O6 O 0.7741599995 0.47637500050000003 0.125
 O6 O 0.8991599995 0.39862499949999997 0.125
 O6 O 0.8508400005 0.35137500050000003 0.125
 O6 O 0.8508400005 0.39862499949999997 0.125
 O6 O 0.8991599995 0.35137500050000003 0.125
 O7 O 0.7698449995000001 0.28517999875 0.04336500175
 O7 O 0.9801550005 0.46482000125 0.20663499825
 O7 O 0.9801550005 0.46482000125 0.04336500175
 O7 O 0.7698449995000001 0.28517999875 0.20663499825
 O7 O 0.9801550005 0.28517999875 0.20663499825
 O7 O 0.7698449995000001 0.46482000125 0.04336500175
 O7 O 0.7698449995000001 0.46482000125 0.20663499825
 O7 O 0.9801550005 0.28517999875 0.04336500175
 O7 O 0.8948449995 0.41017999875 0.04336500175
 O7 O 0.8551550004999999 0.33982000125 0.20663499825
 O7 O 0.8551550004999999 0.33982000125 0.04336500175
 O7 O 0.8948449995 0.41017999875 0.20663499825
 O7 O 0.8551550004999999 0.41017999875 0.20663499825
 O7 O 0.8948449995 0.33982000125 0.04336500175
 O7 O 0.8948449995 0.33982000125 0.20663499825
 O7 O 0.8551550004999999 0.41017999875 0.04336500175
 O8 O 0.8125 0.3125 0.0
 O8 O 0.8125 0.3125 0.25
 O8 O 0.9375 0.4375 0.0
 O8 O 0.9375 0.4375 0.25
 O8 O 0.9375 0.3125 0.0
 O8 O 0.9375 0.3125 0.25
 O8 O 0.8125 0.4375 0.0
 O8 O 0.8125 0.4375 0.25
 O9 O 0.78091249975 0.31469249725 0.0
 O9 O 0.78091249975 0.31469249725 0.25
 O9 O 0.96908750025 0.43530750274999996 0.0
 O9 O 0.96908750025 0.43530750274999996 0.25
 O9 O 0.96908750025 0.31469249725 0.0
 O9 O 0.96908750025 0.31469249725 0.25
 O9 O 0.78091249975 0.43530750274999996 0.0
 O9 O 0.78091249975 0.43530750274999996 0.25
 O9 O 0.90591249975 0.43969249725000004 0.0
 O9 O 0.90591249975 0.43969249725000004 0.25
 O9 O 0.84408750025 0.31030750275 0.0
 O9 O 0.84408750025 0.31030750275 0.25
 O9 O 0.84408750025 0.43969249725000004 0.0
 O9 O 0.84408750025 0.43969249725000004 0.25
 O9 O 0.90591249975 0.31030750275 0.0
 O9 O 0.90591249975 0.31030750275 0.25
 O10 O 0.75 0.30657500025 0.0
 O10 O 0.75 0.30657500025 0.25
 O10 O 1.0 0.30657500025 0.0
 O10 O 1.0 0.30657500025 0.25
 O10 O 0.75 0.44342499975 0.0
 O10 O 0.75 0.44342499975 0.25
 O10 O 1.0 0.44342499975 0.0
 O10 O 1.0 0.44342499975 0.25
 O10 O 0.875 0.43157500025 0.0
 O10 O 0.875 0.43157500025 0.25
 O10 O 0.875 0.31842499975 0.0
 O10 O 0.875 0.31842499975 0.25
 O2 O 0.7976175025000001 0.33963499975 -0.04322750125
 O2 O 0.7976175025000001 0.33963499975 0.29322750125
 O2 O 0.9523824975 0.41036500025 -0.04322750125
 O2 O 0.9523824975 0.41036500025 0.29322750125
 O2 O 0.9523824975 0.33963499975 -0.04322750125
 O2 O 0.9523824975 0.33963499975 0.29322750125
 O2 O 0.7976175025000001 0.41036500025 -0.04322750125
 O2 O 0.7976175025000001 0.41036500025 0.29322750125
 O2 O 0.9226175025 0.46463499975 -0.04322750125
 O2 O 0.9226175025 0.46463499975 0.29322750125
 O2 O 0.8273824974999999 0.28536500025 -0.04322750125
 O2 O 0.8273824974999999 0.28536500025 0.29322750125
 O2 O 0.8273824974999999 0.46463499975 -0.04322750125
 O2 O 0.8273824974999999 0.46463499975 0.29322750125
 O2 O 0.9226175025 0.28536500025 -0.04322750125
 O2 O 0.9226175025 0.28536500025 0.29322750125
 O7 O 0.7698449995000001 0.28517999875 -0.04336500175
 O7 O 0.7698449995000001 0.28517999875 0.29336500175
 O7 O 0.9801550005 0.46482000125 -0.04336500175
 O7 O 0.9801550005 0.46482000125 0.29336500175
 O7 O 0.9801550005 0.28517999875 -0.04336500175
 O7 O 0.9801550005 0.28517999875 0.29336500175
 O7 O 0.7698449995000001 0.46482000125 -0.04336500175
 O7 O 0.7698449995000001 0.46482000125 0.29336500175
 O7 O 0.8948449995 0.41017999875 -0.04336500175
 O7 O 0.8948449995 0.41017999875 0.29336500175
 O7 O 0.8551550004999999 0.33982000125 -0.04336500175
 O7 O 0.8551550004999999 0.33982000125 0.29336500175
 O7 O 0.8551550004999999 0.41017999875 -0.04336500175
 O7 O 0.8551550004999999 0.41017999875 0.29336500175
 O7 O 0.8948449995 0.33982000125 -0.04336500175
 O7 O 0.8948449995 0.33982000125 0.29336500175
 Si1 Si 0.0672350005 0.5216099992500001 0.0748350025
 Si1 Si 0.1827649995 0.7283900007499999 0.1751649975
 Si1 Si 0.1827649995 0.7283900007499999 0.0748350025
 Si1 Si 0.0672350005 0.5216099992500001 0.1751649975
 Si1 Si 0.1827649995 0.5216099992500001 0.1751649975
 Si1 Si 0.0672350005 0.7283900007499999 0.0748350025
 Si1 Si 0.0672350005 0.7283900007499999 0.1751649975
 Si1 Si 0.1827649995 0.5216099992500001 0.0748350025
 Si1 Si 0.1922350005 0.6466099992500001 0.0748350025
 Si1 Si 0.0577649995 0.6033900007499999 0.1751649975
 Si1 Si 0.0577649995 0.6033900007499999 0.0748350025
 Si1 Si 0.1922350005 0.6466099992500001 0.1751649975
 Si1 Si 0.0577649995 0.6466099992500001 0.1751649975
 Si1 Si 0.1922350005 0.6033900007499999 0.0748350025
 Si1 Si 0.1922350005 0.6033900007499999 0.1751649975
 Si1 Si 0.0577649995 0.6466099992500001 0.0748350025
 Si2 Si 0.03017999975 0.5215750002499999 0.074832499
 Si2 Si 0.21982000025 0.72842499975 0.175167501
 Si2 Si 0.21982000025 0.72842499975 0.074832499
 Si2 Si 0.03017999975 0.5215750002499999 0.175167501
 Si2 Si 0.21982000025 0.5215750002499999 0.175167501
 Si2 Si 0.03017999975 0.72842499975 0.074832499
 Si2 Si 0.03017999975 0.72842499975 0.175167501
 Si2 Si 0.21982000025 0.5215750002499999 0.074832499
 Si2 Si 0.15517999975 0.64657500025 0.074832499
 Si2 Si 0.09482000025 0.60342499975 0.175167501
 Si2 Si 0.09482000025 0.60342499975 0.074832499
 Si2 Si 0.15517999975 0.64657500025 0.175167501
 Si2 Si 0.09482000025 0.64657500025 0.175167501
 Si2 Si 0.15517999975 0.60342499975 0.074832499
 Si2 Si 0.15517999975 0.60342499975 0.175167501
 Si2 Si 0.09482000025 0.64657500025 0.074832499
 Si3 Si 0.047362499 0.5764449985 0.0
 Si3 Si 0.047362499 0.5764449985 0.25
 Si3 Si 0.202637501 0.6735550015 0.0
 Si3 Si 0.202637501 0.6735550015 0.25
 Si3 Si 0.202637501 0.5764449985 0.0
 Si3 Si 0.202637501 0.5764449985 0.25
 Si3 Si 0.047362499 0.6735550015 0.0
 Si3 Si 0.047362499 0.6735550015 0.25
 Si3 Si 0.172362499 0.7014449985 0.0
 Si3 Si 0.172362499 0.7014449985 0.25
 Si3 Si 0.077637501 0.5485550015 0.0
 Si3 Si 0.077637501 0.5485550015 0.25
 Si3 Si 0.077637501 0.7014449985 0.0
 Si3 Si 0.077637501 0.7014449985 0.25
 Si3 Si 0.172362499 0.5485550015 0.0
 Si3 Si 0.172362499 0.5485550015 0.25
 Si4 Si 0.01785499975 0.54804499825 0.0
 Si4 Si 0.01785499975 0.54804499825 0.25
 Si4 Si 0.23214500025 0.70195500175 0.0
 Si4 Si 0.23214500025 0.70195500175 0.25
 Si4 Si 0.23214500025 0.54804499825 0.0
 Si4 Si 0.23214500025 0.54804499825 0.25
 Si4 Si 0.01785499975 0.70195500175 0.0
 Si4 Si 0.01785499975 0.70195500175 0.25
 Si4 Si 0.14285499975 0.67304499825 0.0
 Si4 Si 0.14285499975 0.67304499825 0.25
 Si4 Si 0.10714500025 0.57695500175 0.0
 Si4 Si 0.10714500025 0.57695500175 0.25
 Si4 Si 0.10714500025 0.67304499825 0.0
 Si4 Si 0.10714500025 0.67304499825 0.25
 Si4 Si 0.14285499975 0.57695500175 0.0
 Si4 Si 0.14285499975 0.57695500175 0.25
 O1 O 0.04870250075 0.5275350007499999 0.07191000125
 O1 O 0.20129749925 0.72246499925 0.17808999875
 O1 O 0.20129749925 0.72246499925 0.07191000125
 O1 O 0.04870250075 0.5275350007499999 0.17808999875
 O1 O 0.20129749925 0.5275350007499999 0.17808999875
 O1 O 0.04870250075 0.72246499925 0.07191000125
 O1 O 0.04870250075 0.72246499925 0.17808999875
 O1 O 0.20129749925 0.5275350007499999 0.07191000125
 O1 O 0.17370250075 0.65253500075 0.07191000125
 O1 O 0.07629749925 0.5974649992500001 0.17808999875
 O1 O 0.07629749925 0.5974649992500001 0.07191000125
 O1 O 0.17370250075 0.65253500075 0.17808999875
 O1 O 0.07629749925 0.65253500075 0.17808999875
 O1 O 0.17370250075 0.5974649992500001 0.07191000125
 O1 O 0.17370250075 0.5974649992500001 0.17808999875
 O1 O 0.07629749925 0.65253500075 0.07191000125
 O2 O 0.0773824975 0.53536500025 0.04322750125
 O2 O 0.1726175025 0.71463499975 0.20677249875
 O2 O 0.1726175025 0.71463499975 0.04322750125
 O2 O 0.0773824975 0.53536500025 0.20677249875
 O2 O 0.1726175025 0.53536500025 0.20677249875
 O2 O 0.0773824975 0.71463499975 0.04322750125
 O2 O 0.0773824975 0.71463499975 0.20677249875
 O2 O 0.1726175025 0.53536500025 0.04322750125
 O2 O 0.2023824975 0.66036500025 0.04322750125
 O2 O 0.0476175025 0.58963499975 0.20677249875
 O2 O 0.0476175025 0.58963499975 0.04322750125
 O2 O 0.2023824975 0.66036500025 0.20677249875
 O2 O 0.0476175025 0.66036500025 0.20677249875
 O2 O 0.2023824975 0.58963499975 0.04322750125
 O2 O 0.2023824975 0.58963499975 0.20677249875
 O2 O 0.0476175025 0.66036500025 0.04322750125
 O3 O 0.06933250275 0.5 0.05936750025
 O3 O 0.06933250275 0.75 0.05936750025
 O3 O 0.18066749725 0.5 0.19063249975
 O3 O 0.18066749725 0.75 0.19063249975
 O3 O 0.18066749725 0.5 0.05936750025
 O3 O 0.18066749725 0.75 0.05936750025
 O3 O 0.06933250275 0.5 0.19063249975
 O3 O 0.06933250275 0.75 0.19063249975
 O3 O 0.19433250275 0.625 0.05936750025
 O3 O 0.05566749725 0.625 0.19063249975
 O3 O 0.05566749725 0.625 0.05936750025
 O3 O 0.19433250275 0.625 0.19063249975
 O4 O 0.07323499775 0.52379499925 0.125
 O4 O 0.17676500225 0.72620500075 0.125
 O4 O 0.17676500225 0.52379499925 0.125
 O4 O 0.07323499775 0.72620500075 0.125
 O4 O 0.19823499775 0.64879499925 0.125
 O4 O 0.05176500225 0.60120500075 0.125
 O4 O 0.05176500225 0.64879499925 0.125
 O4 O 0.19823499775 0.60120500075 0.125
 O5 O 0.0281475 0.5 0.0590699985
 O5 O 0.0281475 0.75 0.0590699985
 O5 O 0.2218525 0.5 0.1909300015
 O5 O 0.2218525 0.75 0.1909300015
 O5 O 0.2218525 0.5 0.0590699985
 O5 O 0.2218525 0.75 0.0590699985
 O5 O 0.0281475 0.5 0.1909300015
 O5 O 0.0281475 0.75 0.1909300015
 O5 O 0.1531475 0.625 0.0590699985
 O5 O 0.0968525 0.625 0.1909300015
 O5 O 0.0968525 0.625 0.0590699985
 O5 O 0.1531475 0.625 0.1909300015
 O6 O 0.0241599995 0.5236249995 0.125
 O6 O 0.2258400005 0.7263750005 0.125
 O6 O 0.2258400005 0.5236249995 0.125
 O6 O 0.0241599995 0.7263750005 0.125
 O6 O 0.1491599995 0.6486249995 0.125
 O6 O 0.1008400005 0.6013750005 0.125
 O6 O 0.1008400005 0.6486249995 0.125
 O6 O 0.1491599995 0.6013750005 0.125
 O7 O 0.0198449995 0.53517999875 0.04336500175
 O7 O 0.2301550005 0.71482000125 0.20663499825
 O7 O 0.2301550005 0.71482000125 0.04336500175
 O7 O 0.0198449995 0.53517999875 0.20663499825
 O7 O 0.2301550005 0.53517999875 0.20663499825
 O7 O 0.0198449995 0.71482000125 0.04336500175
 O7 O 0.0198449995 0.71482000125 0.20663499825
 O7 O 0.2301550005 0.53517999875 0.04336500175
 O7 O 0.1448449995 0.66017999875 0.04336500175
 O7 O 0.1051550005 0.58982000125 0.20663499825
 O7 O 0.1051550005 0.58982000125 0.04336500175
 O7 O 0.1448449995 0.66017999875 0.20663499825
 O7 O 0.1051550005 0.66017999875 0.20663499825
 O7 O 0.1448449995 0.58982000125 0.04336500175
 O7 O 0.1448449995 0.58982000125 0.20663499825
 O7 O 0.1051550005 0.66017999875 0.04336500175
 O8 O 0.0625 0.5625 0.0
 O8 O 0.0625 0.5625 0.25
 O8 O 0.1875 0.6875 0.0
 O8 O 0.1875 0.6875 0.25
 O8 O 0.1875 0.5625 0.0
 O8 O 0.1875 0.5625 0.25
 O8 O 0.0625 0.6875 0.0
 O8 O 0.0625 0.6875 0.25
 O9 O 0.03091249975 0.56469249725 0.0
 O9 O 0.03091249975 0.56469249725 0.25
 O9 O 0.21908750025 0.68530750275 0.0
 O9 O 0.21908750025 0.68530750275 0.25
 O9 O 0.21908750025 0.56469249725 0.0
 O9 O 0.21908750025 0.56469249725 0.25
 O9 O 0.03091249975 0.68530750275 0.0
 O9 O 0.03091249975 0.68530750275 0.25
 O9 O 0.15591249975 0.68969249725 0.0
 O9 O 0.15591249975 0.68969249725 0.25
 O9 O 0.09408750025 0.56030750275 0.0
 O9 O 0.09408750025 0.56030750275 0.25
 O9 O 0.09408750025 0.68969249725 0.0
 O9 O 0.09408750025 0.68969249725 0.25
 O9 O 0.15591249975 0.56030750275 0.0
 O9 O 0.15591249975 0.56030750275 0.25
 O10 O 0.0 0.5565750002500001 0.0
 O10 O 0.0 0.5565750002500001 0.25
 O10 O 0.25 0.5565750002500001 0.0
 O10 O 0.25 0.5565750002500001 0.25
 O10 O 0.0 0.6934249997499999 0.0
 O10 O 0.0 0.6934249997499999 0.25
 O10 O 0.25 0.6934249997499999 0.0
 O10 O 0.25 0.6934249997499999 0.25
 O10 O 0.125 0.6815750002500001 0.0
 O10 O 0.125 0.6815750002500001 0.25
 O10 O 0.125 0.5684249997499999 0.0
 O10 O 0.125 0.5684249997499999 0.25
 O2 O 0.0476175025 0.58963499975 -0.04322750125
 O2 O 0.0476175025 0.58963499975 0.29322750125
 O2 O 0.2023824975 0.66036500025 -0.04322750125
 O2 O 0.2023824975 0.66036500025 0.29322750125
 O2 O 0.2023824975 0.58963499975 -0.04322750125
 O2 O 0.2023824975 0.58963499975 0.29322750125
 O2 O 0.0476175025 0.66036500025 -0.04322750125
 O2 O 0.0476175025 0.66036500025 0.29322750125
 O2 O 0.1726175025 0.71463499975 -0.04322750125
 O2 O 0.1726175025 0.71463499975 0.29322750125
 O2 O 0.0773824975 0.53536500025 -0.04322750125
 O2 O 0.0773824975 0.53536500025 0.29322750125
 O2 O 0.0773824975 0.71463499975 -0.04322750125
 O2 O 0.0773824975 0.71463499975 0.29322750125
 O2 O 0.1726175025 0.53536500025 -0.04322750125
 O2 O 0.1726175025 0.53536500025 0.29322750125
 O7 O 0.0198449995 0.53517999875 -0.04336500175
 O7 O 0.0198449995 0.53517999875 0.29336500175
 O7 O 0.2301550005 0.71482000125 -0.04336500175
 O7 O 0.2301550005 0.71482000125 0.29336500175
 O7 O 0.2301550005 0.53517999875 -0.04336500175
 O7 O 0.2301550005 0.53517999875 0.29336500175
 O7 O 0.0198449995 0.71482000125 -0.04336500175
 O7 O 0.0198449995 0.71482000125 0.29336500175
 O7 O 0.1448449995 0.66017999875 -0.04336500175
 O7 O 0.1448449995 0.66017999875 0.29336500175
 O7 O 0.1051550005 0.58982000125 -0.04336500175
 O7 O 0.1051550005 0.58982000125 0.29336500175
 O7 O 0.1051550005 0.66017999875 -0.04336500175
 O7 O 0.1051550005 0.66017999875 0.29336500175
 O7 O 0.1448449995 0.58982000125 -0.04336500175
 O7 O 0.1448449995 0.58982000125 0.29336500175
 Si1 Si 0.3172350005 0.5216099992500001 0.0748350025
 Si1 Si 0.4327649995 0.7283900007499999 0.1751649975
 Si1 Si 0.4327649995 0.7283900007499999 0.0748350025
 Si1 Si 0.3172350005 0.5216099992500001 0.1751649975
 Si1 Si 0.4327649995 0.5216099992500001 0.1751649975
 Si1 Si 0.3172350005 0.7283900007499999 0.0748350025
 Si1 Si 0.3172350005 0.7283900007499999 0.1751649975
 Si1 Si 0.4327649995 0.5216099992500001 0.0748350025
 Si1 Si 0.4422350005 0.6466099992500001 0.0748350025
 Si1 Si 0.3077649995 0.6033900007499999 0.1751649975
 Si1 Si 0.3077649995 0.6033900007499999 0.0748350025
 Si1 Si 0.4422350005 0.6466099992500001 0.1751649975
 Si1 Si 0.3077649995 0.6466099992500001 0.1751649975
 Si1 Si 0.4422350005 0.6033900007499999 0.0748350025
 Si1 Si 0.4422350005 0.6033900007499999 0.1751649975
 Si1 Si 0.3077649995 0.6466099992500001 0.0748350025
 Si2 Si 0.28017999975 0.5215750002499999 0.074832499
 Si2 Si 0.46982000025000004 0.72842499975 0.175167501
 Si2 Si 0.46982000025000004 0.72842499975 0.074832499
 Si2 Si 0.28017999975 0.5215750002499999 0.175167501
 Si2 Si 0.46982000025000004 0.5215750002499999 0.175167501
 Si2 Si 0.28017999975 0.72842499975 0.074832499
 Si2 Si 0.28017999975 0.72842499975 0.175167501
 Si2 Si 0.46982000025000004 0.5215750002499999 0.074832499
 Si2 Si 0.40517999974999996 0.64657500025 0.074832499
 Si2 Si 0.34482000025 0.60342499975 0.175167501
 Si2 Si 0.34482000025 0.60342499975 0.074832499
 Si2 Si 0.40517999974999996 0.64657500025 0.175167501
 Si2 Si 0.34482000025 0.64657500025 0.175167501
 Si2 Si 0.40517999974999996 0.60342499975 0.074832499
 Si2 Si 0.40517999974999996 0.60342499975 0.175167501
 Si2 Si 0.34482000025 0.64657500025 0.074832499
 Si3 Si 0.297362499 0.5764449985 0.0
 Si3 Si 0.297362499 0.5764449985 0.25
 Si3 Si 0.452637501 0.6735550015 0.0
 Si3 Si 0.452637501 0.6735550015 0.25
 Si3 Si 0.452637501 0.5764449985 0.0
 Si3 Si 0.452637501 0.5764449985 0.25
 Si3 Si 0.297362499 0.6735550015 0.0
 Si3 Si 0.297362499 0.6735550015 0.25
 Si3 Si 0.422362499 0.7014449985 0.0
 Si3 Si 0.422362499 0.7014449985 0.25
 Si3 Si 0.327637501 0.5485550015 0.0
 Si3 Si 0.327637501 0.5485550015 0.25
 Si3 Si 0.327637501 0.7014449985 0.0
 Si3 Si 0.327637501 0.7014449985 0.25
 Si3 Si 0.422362499 0.5485550015 0.0
 Si3 Si 0.422362499 0.5485550015 0.25
 Si4 Si 0.26785499975 0.54804499825 0.0
 Si4 Si 0.26785499975 0.54804499825 0.25
 Si4 Si 0.48214500025 0.70195500175 0.0
 Si4 Si 0.48214500025 0.70195500175 0.25
 Si4 Si 0.48214500025 0.54804499825 0.0
 Si4 Si 0.48214500025 0.54804499825 0.25
 Si4 Si 0.26785499975 0.70195500175 0.0
 Si4 Si 0.26785499975 0.70195500175 0.25
 Si4 Si 0.39285499975 0.67304499825 0.0
 Si4 Si 0.39285499975 0.67304499825 0.25
 Si4 Si 0.35714500025 0.57695500175 0.0
 Si4 Si 0.35714500025 0.57695500175 0.25
 Si4 Si 0.35714500025 0.67304499825 0.0
 Si4 Si 0.35714500025 0.67304499825 0.25
 Si4 Si 0.39285499975 0.57695500175 0.0
 Si4 Si 0.39285499975 0.57695500175 0.25
 O1 O 0.29870250075 0.5275350007499999 0.07191000125
 O1 O 0.45129749925 0.72246499925 0.17808999875
 O1 O 0.45129749925 0.72246499925 0.07191000125
 O1 O 0.29870250075 0.5275350007499999 0.17808999875
 O1 O 0.45129749925 0.5275350007499999 0.17808999875
 O1 O 0.29870250075 0.72246499925 0.07191000125
 O1 O 0.29870250075 0.72246499925 0.17808999875
 O1 O 0.45129749925 0.5275350007499999 0.07191000125
 O1 O 0.42370250075 0.65253500075 0.07191000125
 O1 O 0.32629749925 0.5974649992500001 0.17808999875
 O1 O 0.32629749925 0.5974649992500001 0.07191000125
 O1 O 0.42370250075 0.65253500075 0.17808999875
 O1 O 0.32629749925 0.65253500075 0.17808999875
 O1 O 0.42370250075 0.5974649992500001 0.07191000125
 O1 O 0.42370250075 0.5974649992500001 0.17808999875
 O1 O 0.32629749925 0.65253500075 0.07191000125
 O2 O 0.3273824975 0.53536500025 0.04322750125
 O2 O 0.42261750249999996 0.71463499975 0.20677249875
 O2 O 0.42261750249999996 0.71463499975 0.04322750125
 O2 O 0.3273824975 0.53536500025 0.20677249875
 O2 O 0.42261750249999996 0.53536500025 0.20677249875
 O2 O 0.3273824975 0.71463499975 0.04322750125
 O2 O 0.3273824975 0.71463499975 0.20677249875
 O2 O 0.42261750249999996 0.53536500025 0.04322750125
 O2 O 0.45238249750000004 0.66036500025 0.04322750125
 O2 O 0.2976175025 0.58963499975 0.20677249875
 O2 O 0.2976175025 0.58963499975 0.04322750125
 O2 O 0.45238249750000004 0.66036500025 0.20677249875
 O2 O 0.2976175025 0.66036500025 0.20677249875
 O2 O 0.45238249750000004 0.58963499975 0.04322750125
 O2 O 0.45238249750000004 0.58963499975 0.20677249875
 O2 O 0.2976175025 0.66036500025 0.04322750125
 O3 O 0.31933250275 0.5 0.05936750025
 O3 O 0.31933250275 0.75 0.05936750025
 O3 O 0.43066749725 0.5 0.19063249975
 O3 O 0.43066749725 0.75 0.19063249975
 O3 O 0.43066749725 0.5 0.05936750025
 O3 O 0.43066749725 0.75 0.05936750025
 O3 O 0.31933250275 0.5 0.19063249975
 O3 O 0.31933250275 0.75 0.19063249975
 O3 O 0.44433250275 0.625 0.05936750025
 O3 O 0.30566749725 0.625 0.19063249975
 O3 O 0.30566749725 0.625 0.05936750025
 O3 O 0.44433250275 0.625 0.19063249975
 O4 O 0.32323499775 0.52379499925 0.125
 O4 O 0.42676500225 0.72620500075 0.125
 O4 O 0.42676500225 0.52379499925 0.125
 O4 O 0.32323499775 0.72620500075 0.125
 O4 O 0.44823499775 0.64879499925 0.125
 O4 O 0.30176500225 0.60120500075 0.125
 O4 O 0.30176500225 0.64879499925 0.125
 O4 O 0.44823499775 0.60120500075 0.125
 O5 O 0.2781475 0.5 0.0590699985
 O5 O 0.2781475 0.75 0.0590699985
 O5 O 0.4718525 0.5 0.1909300015
 O5 O 0.4718525 0.75 0.1909300015
 O5 O 0.4718525 0.5 0.0590699985
 O5 O 0.4718525 0.75 0.0590699985
 O5 O 0.2781475 0.5 0.1909300015
 O5 O 0.2781475 0.75 0.1909300015
 O5 O 0.4031475 0.625 0.0590699985
 O5 O 0.3468525 0.625 0.1909300015
 O5 O 0.3468525 0.625 0.0590699985
 O5 O 0.4031475 0.625 0.1909300015
 O6 O 0.27415999950000003 0.5236249995 0.125
 O6 O 0.47584000049999997 0.7263750005 0.125
 O6 O 0.47584000049999997 0.5236249995 0.125
 O6 O 0.27415999950000003 0.7263750005 0.125
 O6 O 0.39915999950000003 0.6486249995 0.125
 O6 O 0.35084000049999997 0.6013750005 0.125
 O6 O 0.35084000049999997 0.6486249995 0.125
 O6 O 0.39915999950000003 0.6013750005 0.125
 O7 O 0.2698449995 0.53517999875 0.04336500175
 O7 O 0.48015500050000004 0.71482000125 0.20663499825
 O7 O 0.48015500050000004 0.71482000125 0.04336500175
 O7 O 0.2698449995 0.53517999875 0.20663499825
 O7 O 0.48015500050000004 0.53517999875 0.20663499825
 O7 O 0.2698449995 0.71482000125 0.04336500175
 O7 O 0.2698449995 0.71482000125 0.20663499825
 O7 O 0.48015500050000004 0.53517999875 0.04336500175
 O7 O 0.39484499949999996 0.66017999875 0.04336500175
 O7 O 0.3551550005 0.58982000125 0.20663499825
 O7 O 0.3551550005 0.58982000125 0.04336500175
 O7 O 0.39484499949999996 0.66017999875 0.20663499825
 O7 O 0.3551550005 0.66017999875 0.20663499825
 O7 O 0.39484499949999996 0.58982000125 0.04336500175
 O7 O 0.39484499949999996 0.58982000125 0.20663499825
 O7 O 0.3551550005 0.66017999875 0.04336500175
 O8 O 0.3125 0.5625 0.0
 O8 O 0.3125 0.5625 0.25
 O8 O 0.4375 0.6875 0.0
 O8 O 0.4375 0.6875 0.25
 O8 O 0.4375 0.5625 0.0
 O8 O 0.4375 0.5625 0.25
 O8 O 0.3125 0.6875 0.0
 O8 O 0.3125 0.6875 0.25
 O9 O 0.28091249975 0.56469249725 0.0
 O9 O 0.28091249975 0.56469249725 0.25
 O9 O 0.46908750025 0.68530750275 0.0
 O9 O 0.46908750025 0.68530750275 0.25
 O9 O 0.46908750025 0.56469249725 0.0
 O9 O 0.46908750025 0.56469249725 0.25
 O9 O 0.28091249975 0.68530750275 0.0
 O9 O 0.28091249975 0.68530750275 0.25
 O9 O 0.40591249975 0.68969249725 0.0
 O9 O 0.40591249975 0.68969249725 0.25
 O9 O 0.34408750025 0.56030750275 0.0
 O9 O 0.34408750025 0.56030750275 0.25
 O9 O 0.34408750025 0.68969249725 0.0
 O9 O 0.34408750025 0.68969249725 0.25
 O9 O 0.40591249975 0.56030750275 0.0
 O9 O 0.40591249975 0.56030750275 0.25
 O10 O 0.25 0.5565750002500001 0.0
 O10 O 0.25 0.5565750002500001 0.25
 O10 O 0.5 0.5565750002500001 0.0
 O10 O 0.5 0.5565750002500001 0.25
 O10 O 0.25 0.6934249997499999 0.0
 O10 O 0.25 0.6934249997499999 0.25
 O10 O 0.5 0.6934249997499999 0.0
 O10 O 0.5 0.6934249997499999 0.25
 O10 O 0.375 0.6815750002500001 0.0
 O10 O 0.375 0.6815750002500001 0.25
 O10 O 0.375 0.5684249997499999 0.0
 O10 O 0.375 0.5684249997499999 0.25
 O2 O 0.2976175025 0.58963499975 -0.04322750125
 O2 O 0.2976175025 0.58963499975 0.29322750125
 O2 O 0.45238249750000004 0.66036500025 -0.04322750125
 O2 O 0.45238249750000004 0.66036500025 0.29322750125
 O2 O 0.45238249750000004 0.58963499975 -0.04322750125
 O2 O 0.45238249750000004 0.58963499975 0.29322750125
 O2 O 0.2976175025 0.66036500025 -0.04322750125
 O2 O 0.2976175025 0.66036500025 0.29322750125
 O2 O 0.42261750249999996 0.71463499975 -0.04322750125
 O2 O 0.42261750249999996 0.71463499975 0.29322750125
 O2 O 0.3273824975 0.53536500025 -0.04322750125
 O2 O 0.3273824975 0.53536500025 0.29322750125
 O2 O 0.3273824975 0.71463499975 -0.04322750125
 O2 O 0.3273824975 0.71463499975 0.29322750125
 O2 O 0.42261750249999996 0.53536500025 -0.04322750125
 O2 O 0.42261750249999996 0.53536500025 0.29322750125
 O7 O 0.2698449995 0.53517999875 -0.04336500175
 O7 O 0.2698449995 0.53517999875 0.29336500175
 O7 O 0.48015500050000004 0.71482000125 -0.04336500175
 O7 O 0.48015500050000004 0.71482000125 0.29336500175
 O7 O 0.48015500050000004 0.53517999875 -0.04336500175
 O7 O 0.48015500050000004 0.53517999875 0.29336500175
 O7 O 0.2698449995 0.71482000125 -0.04336500175
 O7 O 0.2698449995 0.71482000125 0.29336500175
 O7 O 0.39484499949999996 0.66017999875 -0.04336500175
 O7 O 0.39484499949999996 0.66017999875 0.29336500175
 O7 O 0.3551550005 0.58982000125 -0.04336500175
 O7 O 0.3551550005 0.58982000125 0.29336500175
 O7 O 0.3551550005 0.66017999875 -0.04336500175
 O7 O 0.3551550005 0.66017999875 0.29336500175
 O7 O 0.39484499949999996 0.58982000125 -0.04336500175
 O7 O 0.39484499949999996 0.58982000125 0.29336500175
 Si1 Si 0.5672350005 0.5216099992500001 0.0748350025
 Si1 Si 0.6827649995 0.7283900007499999 0.1751649975
 Si1 Si 0.6827649995 0.7283900007499999 0.0748350025
 Si1 Si 0.5672350005 0.5216099992500001 0.1751649975
 Si1 Si 0.6827649995 0.5216099992500001 0.1751649975
 Si1 Si 0.5672350005 0.7283900007499999 0.0748350025
 Si1 Si 0.5672350005 0.7283900007499999 0.1751649975
 Si1 Si 0.6827649995 0.5216099992500001 0.0748350025
 Si1 Si 0.6922350005 0.6466099992500001 0.0748350025
 Si1 Si 0.5577649995 0.6033900007499999 0.1751649975
 Si1 Si 0.5577649995 0.6033900007499999 0.0748350025
 Si1 Si 0.6922350005 0.6466099992500001 0.1751649975
 Si1 Si 0.5577649995 0.6466099992500001 0.1751649975
 Si1 Si 0.6922350005 0.6033900007499999 0.0748350025
 Si1 Si 0.6922350005 0.6033900007499999 0.1751649975
 Si1 Si 0.5577649995 0.6466099992500001 0.0748350025
 Si2 Si 0.5301799997500001 0.5215750002499999 0.074832499
 Si2 Si 0.71982000025 0.72842499975 0.175167501
 Si2 Si 0.71982000025 0.72842499975 0.074832499
 Si2 Si 0.5301799997500001 0.5215750002499999 0.175167501
 Si2 Si 0.71982000025 0.5215750002499999 0.175167501
 Si2 Si 0.5301799997500001 0.72842499975 0.074832499
 Si2 Si 0.5301799997500001 0.72842499975 0.175167501
 Si2 Si 0.71982000025 0.5215750002499999 0.074832499
 Si2 Si 0.65517999975 0.64657500025 0.074832499
 Si2 Si 0.5948200002499999 0.60342499975 0.175167501
 Si2 Si 0.5948200002499999 0.60342499975 0.074832499
 Si2 Si 0.65517999975 0.64657500025 0.175167501
 Si2 Si 0.5948200002499999 0.64657500025 0.175167501
 Si2 Si 0.65517999975 0.60342499975 0.074832499
 Si2 Si 0.65517999975 0.60342499975 0.175167501
 Si2 Si 0.5948200002499999 0.64657500025 0.074832499
 Si3 Si 0.547362499 0.5764449985 0.0
 Si3 Si 0.547362499 0.5764449985 0.25
 Si3 Si 0.702637501 0.6735550015 0.0
 Si3 Si 0.702637501 0.6735550015 0.25
 Si3 Si 0.702637501 0.5764449985 0.0
 Si3 Si 0.702637501 0.5764449985 0.25
 Si3 Si 0.547362499 0.6735550015 0.0
 Si3 Si 0.547362499 0.6735550015 0.25
 Si3 Si 0.672362499 0.7014449985 0.0
 Si3 Si 0.672362499 0.7014449985 0.25
 Si3 Si 0.577637501 0.5485550015 0.0
 Si3 Si 0.577637501 0.5485550015 0.25
 Si3 Si 0.577637501 0.7014449985 0.0
 Si3 Si 0.577637501 0.7014449985 0.25
 Si3 Si 0.672362499 0.5485550015 0.0
 Si3 Si 0.672362499 0.5485550015 0.25
 Si4 Si 0.5178549997499999 0.54804499825 0.0
 Si4 Si 0.5178549997499999 0.54804499825 0.25
 Si4 Si 0.7321450002500001 0.70195500175 0.0
 Si4 Si 0.7321450002500001 0.70195500175 0.25
 Si4 Si 0.7321450002500001 0.54804499825 0.0
 Si4 Si 0.7321450002500001 0.54804499825 0.25
 Si4 Si 0.5178549997499999 0.70195500175 0.0
 Si4 Si 0.5178549997499999 0.70195500175 0.25
 Si4 Si 0.6428549997499999 0.67304499825 0.0
 Si4 Si 0.6428549997499999 0.67304499825 0.25
 Si4 Si 0.6071450002500001 0.57695500175 0.0
 Si4 Si 0.6071450002500001 0.57695500175 0.25
 Si4 Si 0.6071450002500001 0.67304499825 0.0
 Si4 Si 0.6071450002500001 0.67304499825 0.25
 Si4 Si 0.6428549997499999 0.57695500175 0.0
 Si4 Si 0.6428549997499999 0.57695500175 0.25
 O1 O 0.5487025007499999 0.5275350007499999 0.07191000125
 O1 O 0.7012974992500001 0.72246499925 0.17808999875
 O1 O 0.7012974992500001 0.72246499925 0.07191000125
 O1 O 0.5487025007499999 0.5275350007499999 0.17808999875
 O1 O 0.7012974992500001 0.5275350007499999 0.17808999875
 O1 O 0.5487025007499999 0.72246499925 0.07191000125
 O1 O 0.5487025007499999 0.72246499925 0.17808999875
 O1 O 0.7012974992500001 0.5275350007499999 0.07191000125
 O1 O 0.6737025007499999 0.65253500075 0.07191000125
 O1 O 0.5762974992500001 0.5974649992500001 0.17808999875
 O1 O 0.5762974992500001 0.5974649992500001 0.07191000125
 O1 O 0.6737025007499999 0.65253500075 0.17808999875
 O1 O 0.5762974992500001 0.65253500075 0.17808999875
 O1 O 0.6737025007499999 0.5974649992500001 0.07191000125
 O1 O 0.6737025007499999 0.5974649992500001 0.17808999875
 O1 O 0.5762974992500001 0.65253500075 0.07191000125
 O2 O 0.5773824974999999 0.53536500025 0.04322750125
 O2 O 0.6726175025 0.71463499975 0.20677249875
 O2 O 0.6726175025 0.71463499975 0.04322750125
 O2 O 0.5773824974999999 0.53536500025 0.20677249875
 O2 O 0.6726175025 0.53536500025 0.20677249875
 O2 O 0.5773824974999999 0.71463499975 0.04322750125
 O2 O 0.5773824974999999 0.71463499975 0.20677249875
 O2 O 0.6726175025 0.53536500025 0.04322750125
 O2 O 0.7023824975 0.66036500025 0.04322750125
 O2 O 0.5476175025000001 0.58963499975 0.20677249875
 O2 O 0.5476175025000001 0.58963499975 0.04322750125
 O2 O 0.7023824975 0.66036500025 0.20677249875
 O2 O 0.5476175025000001 0.66036500025 0.20677249875
 O2 O 0.7023824975 0.58963499975 0.04322750125
 O2 O 0.7023824975 0.58963499975 0.20677249875
 O2 O 0.5476175025000001 0.66036500025 0.04322750125
 O3 O 0.56933250275 0.5 0.05936750025
 O3 O 0.56933250275 0.75 0.05936750025
 O3 O 0.68066749725 0.5 0.19063249975
 O3 O 0.68066749725 0.75 0.19063249975
 O3 O 0.68066749725 0.5 0.05936750025
 O3 O 0.68066749725 0.75 0.05936750025
 O3 O 0.56933250275 0.5 0.19063249975
 O3 O 0.56933250275 0.75 0.19063249975
 O3 O 0.69433250275 0.625 0.05936750025
 O3 O 0.55566749725 0.625 0.19063249975
 O3 O 0.55566749725 0.625 0.05936750025
 O3 O 0.69433250275 0.625 0.19063249975
 O4 O 0.57323499775 0.52379499925 0.125
 O4 O 0.67676500225 0.72620500075 0.125
 O4 O 0.67676500225 0.52379499925 0.125
 O4 O 0.57323499775 0.72620500075 0.125
 O4 O 0.69823499775 0.64879499925 0.125
 O4 O 0.55176500225 0.60120500075 0.125
 O4 O 0.55176500225 0.64879499925 0.125
 O4 O 0.69823499775 0.60120500075 0.125
 O5 O 0.5281475 0.5 0.0590699985
 O5 O 0.5281475 0.75 0.0590699985
 O5 O 0.7218525 0.5 0.1909300015
 O5 O 0.7218525 0.75 0.1909300015
 O5 O 0.7218525 0.5 0.0590699985
 O5 O 0.7218525 0.75 0.0590699985
 O5 O 0.5281475 0.5 0.1909300015
 O5 O 0.5281475 0.75 0.1909300015
 O5 O 0.6531475 0.625 0.0590699985
 O5 O 0.5968525 0.625 0.1909300015
 O5 O 0.5968525 0.625 0.0590699985
 O5 O 0.6531475 0.625 0.1909300015
 O6 O 0.5241599995 0.5236249995 0.125
 O6 O 0.7258400005 0.7263750005 0.125
 O6 O 0.7258400005 0.5236249995 0.125
 O6 O 0.5241599995 0.7263750005 0.125
 O6 O 0.6491599995 0.6486249995 0.125
 O6 O 0.6008400005 0.6013750005 0.125
 O6 O 0.6008400005 0.6486249995 0.125
 O6 O 0.6491599995 0.6013750005 0.125
 O7 O 0.5198449995000001 0.53517999875 0.04336500175
 O7 O 0.7301550005 0.71482000125 0.20663499825
 O7 O 0.7301550005 0.71482000125 0.04336500175
 O7 O 0.5198449995000001 0.53517999875 0.20663499825
 O7 O 0.7301550005 0.53517999875 0.20663499825
 O7 O 0.5198449995000001 0.71482000125 0.04336500175
 O7 O 0.5198449995000001 0.71482000125 0.20663499825
 O7 O 0.7301550005 0.53517999875 0.04336500175
 O7 O 0.6448449995 0.66017999875 0.04336500175
 O7 O 0.6051550004999999 0.58982000125 0.20663499825
 O7 O 0.6051550004999999 0.58982000125 0.04336500175
 O7 O 0.6448449995 0.66017999875 0.20663499825
 O7 O 0.6051550004999999 0.66017999875 0.20663499825
 O7 O 0.6448449995 0.58982000125 0.04336500175
 O7 O 0.6448449995 0.58982000125 0.20663499825
 O7 O 0.6051550004999999 0.66017999875 0.04336500175
 O8 O 0.5625 0.5625 0.0
 O8 O 0.5625 0.5625 0.25
 O8 O 0.6875 0.6875 0.0
 O8 O 0.6875 0.6875 0.25
 O8 O 0.6875 0.5625 0.0
 O8 O 0.6875 0.5625 0.25
 O8 O 0.5625 0.6875 0.0
 O8 O 0.5625 0.6875 0.25
 O9 O 0.53091249975 0.56469249725 0.0
 O9 O 0.53091249975 0.56469249725 0.25
 O9 O 0.71908750025 0.68530750275 0.0
 O9 O 0.71908750025 0.68530750275 0.25
 O9 O 0.71908750025 0.56469249725 0.0
 O9 O 0.71908750025 0.56469249725 0.25
 O9 O 0.53091249975 0.68530750275 0.0
 O9 O 0.53091249975 0.68530750275 0.25
 O9 O 0.65591249975 0.68969249725 0.0
 O9 O 0.65591249975 0.68969249725 0.25
 O9 O 0.59408750025 0.56030750275 0.0
 O9 O 0.59408750025 0.56030750275 0.25
 O9 O 0.59408750025 0.68969249725 0.0
 O9 O 0.59408750025 0.68969249725 0.25
 O9 O 0.65591249975 0.56030750275 0.0
 O9 O 0.65591249975 0.56030750275 0.25
 O10 O 0.5 0.5565750002500001 0.0
 O10 O 0.5 0.5565750002500001 0.25
 O10 O 0.75 0.5565750002500001 0.0
 O10 O 0.75 0.5565750002500001 0.25
 O10 O 0.5 0.6934249997499999 0.0
 O10 O 0.5 0.6934249997499999 0.25
 O10 O 0.75 0.6934249997499999 0.0
 O10 O 0.75 0.6934249997499999 0.25
 O10 O 0.625 0.6815750002500001 0.0
 O10 O 0.625 0.6815750002500001 0.25
 O10 O 0.625 0.5684249997499999 0.0
 O10 O 0.625 0.5684249997499999 0.25
 O2 O 0.5476175025000001 0.58963499975 -0.04322750125
 O2 O 0.5476175025000001 0.58963499975 0.29322750125
 O2 O 0.7023824975 0.66036500025 -0.04322750125
 O2 O 0.7023824975 0.66036500025 0.29322750125
 O2 O 0.7023824975 0.58963499975 -0.04322750125
 O2 O 0.7023824975 0.58963499975 0.29322750125
 O2 O 0.5476175025000001 0.66036500025 -0.04322750125
 O2 O 0.5476175025000001 0.66036500025 0.29322750125
 O2 O 0.6726175025 0.71463499975 -0.04322750125
 O2 O 0.6726175025 0.71463499975 0.29322750125
 O2 O 0.5773824974999999 0.53536500025 -0.04322750125
 O2 O 0.5773824974999999 0.53536500025 0.29322750125
 O2 O 0.5773824974999999 0.71463499975 -0.04322750125
 O2 O 0.5773824974999999 0.71463499975 0.29322750125
 O2 O 0.6726175025 0.53536500025 -0.04322750125
 O2 O 0.6726175025 0.53536500025 0.29322750125
 O7 O 0.5198449995000001 0.53517999875 -0.04336500175
 O7 O 0.5198449995000001 0.53517999875 0.29336500175
 O7 O 0.7301550005 0.71482000125 -0.04336500175
 O7 O 0.7301550005 0.71482000125 0.29336500175
 O7 O 0.7301550005 0.53517999875 -0.04336500175
 O7 O 0.7301550005 0.53517999875 0.29336500175
 O7 O 0.5198449995000001 0.71482000125 -0.04336500175
 O7 O 0.5198449995000001 0.71482000125 0.29336500175
 O7 O 0.6448449995 0.66017999875 -0.04336500175
 O7 O 0.6448449995 0.66017999875 0.29336500175
 O7 O 0.6051550004999999 0.58982000125 -0.04336500175
 O7 O 0.6051550004999999 0.58982000125 0.29336500175
 O7 O 0.6051550004999999 0.66017999875 -0.04336500175
 O7 O 0.6051550004999999 0.66017999875 0.29336500175
 O7 O 0.6448449995 0.58982000125 -0.04336500175
 O7 O 0.6448449995 0.58982000125 0.29336500175
 Si1 Si 0.8172350005 0.5216099992500001 0.0748350025
 Si1 Si 0.9327649995 0.7283900007499999 0.1751649975
 Si1 Si 0.9327649995 0.7283900007499999 0.0748350025
 Si1 Si 0.8172350005 0.5216099992500001 0.1751649975
 Si1 Si 0.9327649995 0.5216099992500001 0.1751649975
 Si1 Si 0.8172350005 0.7283900007499999 0.0748350025
 Si1 Si 0.8172350005 0.7283900007499999 0.1751649975
 Si1 Si 0.9327649995 0.5216099992500001 0.0748350025
 Si1 Si 0.9422350005 0.6466099992500001 0.0748350025
 Si1 Si 0.8077649995 0.6033900007499999 0.1751649975
 Si1 Si 0.8077649995 0.6033900007499999 0.0748350025
 Si1 Si 0.9422350005 0.6466099992500001 0.1751649975
 Si1 Si 0.8077649995 0.6466099992500001 0.1751649975
 Si1 Si 0.9422350005 0.6033900007499999 0.0748350025
 Si1 Si 0.9422350005 0.6033900007499999 0.1751649975
 Si1 Si 0.8077649995 0.6466099992500001 0.0748350025
 Si2 Si 0.7801799997500001 0.5215750002499999 0.074832499
 Si2 Si 0.96982000025 0.72842499975 0.175167501
 Si2 Si 0.96982000025 0.72842499975 0.074832499
 Si2 Si 0.7801799997500001 0.5215750002499999 0.175167501
 Si2 Si 0.96982000025 0.5215750002499999 0.175167501
 Si2 Si 0.7801799997500001 0.72842499975 0.074832499
 Si2 Si 0.7801799997500001 0.72842499975 0.175167501
 Si2 Si 0.96982000025 0.5215750002499999 0.074832499
 Si2 Si 0.90517999975 0.64657500025 0.074832499
 Si2 Si 0.8448200002499999 0.60342499975 0.175167501
 Si2 Si 0.8448200002499999 0.60342499975 0.074832499
 Si2 Si 0.90517999975 0.64657500025 0.175167501
 Si2 Si 0.8448200002499999 0.64657500025 0.175167501
 Si2 Si 0.90517999975 0.60342499975 0.074832499
 Si2 Si 0.90517999975 0.60342499975 0.175167501
 Si2 Si 0.8448200002499999 0.64657500025 0.074832499
 Si3 Si 0.797362499 0.5764449985 0.0
 Si3 Si 0.797362499 0.5764449985 0.25
 Si3 Si 0.952637501 0.6735550015 0.0
 Si3 Si 0.952637501 0.6735550015 0.25
 Si3 Si 0.952637501 0.5764449985 0.0
 Si3 Si 0.952637501 0.5764449985 0.25
 Si3 Si 0.797362499 0.6735550015 0.0
 Si3 Si 0.797362499 0.6735550015 0.25
 Si3 Si 0.922362499 0.7014449985 0.0
 Si3 Si 0.922362499 0.7014449985 0.25
 Si3 Si 0.827637501 0.5485550015 0.0
 Si3 Si 0.827637501 0.5485550015 0.25
 Si3 Si 0.827637501 0.7014449985 0.0
 Si3 Si 0.827637501 0.7014449985 0.25
 Si3 Si 0.922362499 0.5485550015 0.0
 Si3 Si 0.922362499 0.5485550015 0.25
 Si4 Si 0.7678549997499999 0.54804499825 0.0
 Si4 Si 0.7678549997499999 0.54804499825 0.25
 Si4 Si 0.9821450002500001 0.70195500175 0.0
 Si4 Si 0.9821450002500001 0.70195500175 0.25
 Si4 Si 0.9821450002500001 0.54804499825 0.0
 Si4 Si 0.9821450002500001 0.54804499825 0.25
 Si4 Si 0.7678549997499999 0.70195500175 0.0
 Si4 Si 0.7678549997499999 0.70195500175 0.25
 Si4 Si 0.8928549997499999 0.67304499825 0.0
 Si4 Si 0.8928549997499999 0.67304499825 0.25
 Si4 Si 0.8571450002500001 0.57695500175 0.0
 Si4 Si 0.8571450002500001 0.57695500175 0.25
 Si4 Si 0.8571450002500001 0.67304499825 0.0
 Si4 Si 0.8571450002500001 0.67304499825 0.25
 Si4 Si 0.8928549997499999 0.57695500175 0.0
 Si4 Si 0.8928549997499999 0.57695500175 0.25
 O1 O 0.7987025007499999 0.5275350007499999 0.07191000125
 O1 O 0.9512974992500001 0.72246499925 0.17808999875
 O1 O 0.9512974992500001 0.72246499925 0.07191000125
 O1 O 0.7987025007499999 0.5275350007499999 0.17808999875
 O1 O 0.9512974992500001 0.5275350007499999 0.17808999875
 O1 O 0.7987025007499999 0.72246499925 0.07191000125
 O1 O 0.7987025007499999 0.72246499925 0.17808999875
 O1 O 0.9512974992500001 0.5275350007499999 0.07191000125
 O1 O 0.9237025007499999 0.65253500075 0.07191000125
 O1 O 0.8262974992500001 0.5974649992500001 0.17808999875
 O1 O 0.8262974992500001 0.5974649992500001 0.07191000125
 O1 O 0.9237025007499999 0.65253500075 0.17808999875
 O1 O 0.8262974992500001 0.65253500075 0.17808999875
 O1 O 0.9237025007499999 0.5974649992500001 0.07191000125
 O1 O 0.9237025007499999 0.5974649992500001 0.17808999875
 O1 O 0.8262974992500001 0.65253500075 0.07191000125
 O2 O 0.8273824974999999 0.53536500025 0.04322750125
 O2 O 0.9226175025 0.71463499975 0.20677249875
 O2 O 0.9226175025 0.71463499975 0.04322750125
 O2 O 0.8273824974999999 0.53536500025 0.20677249875
 O2 O 0.9226175025 0.53536500025 0.20677249875
 O2 O 0.8273824974999999 0.71463499975 0.04322750125
 O2 O 0.8273824974999999 0.71463499975 0.20677249875
 O2 O 0.9226175025 0.53536500025 0.04322750125
 O2 O 0.9523824975 0.66036500025 0.04322750125
 O2 O 0.7976175025000001 0.58963499975 0.20677249875
 O2 O 0.7976175025000001 0.58963499975 0.04322750125
 O2 O 0.9523824975 0.66036500025 0.20677249875
 O2 O 0.7976175025000001 0.66036500025 0.20677249875
 O2 O 0.9523824975 0.58963499975 0.04322750125
 O2 O 0.9523824975 0.58963499975 0.20677249875
 O2 O 0.7976175025000001 0.66036500025 0.04322750125
 O3 O 0.81933250275 0.5 0.05936750025
 O3 O 0.81933250275 0.75 0.05936750025
 O3 O 0.93066749725 0.5 0.19063249975
 O3 O 0.93066749725 0.75 0.19063249975
 O3 O 0.93066749725 0.5 0.05936750025
 O3 O 0.93066749725 0.75 0.05936750025
 O3 O 0.81933250275 0.5 0.19063249975
 O3 O 0.81933250275 0.75 0.19063249975
 O3 O 0.94433250275 0.625 0.05936750025
 O3 O 0.80566749725 0.625 0.19063249975
 O3 O 0.80566749725 0.625 0.05936750025
 O3 O 0.94433250275 0.625 0.19063249975
 O4 O 0.82323499775 0.52379499925 0.125
 O4 O 0.92676500225 0.72620500075 0.125
 O4 O 0.92676500225 0.52379499925 0.125
 O4 O 0.82323499775 0.72620500075 0.125
 O4 O 0.94823499775 0.64879499925 0.125
 O4 O 0.80176500225 0.60120500075 0.125
 O4 O 0.80176500225 0.64879499925 0.125
 O4 O 0.94823499775 0.60120500075 0.125
 O5 O 0.7781475 0.5 0.0590699985
 O5 O 0.7781475 0.75 0.0590699985
 O5 O 0.9718525 0.5 0.1909300015
 O5 O 0.9718525 0.75 0.1909300015
 O5 O 0.9718525 0.5 0.0590699985
 O5 O 0.9718525 0.75 0.0590699985
 O5 O 0.7781475 0.5 0.1909300015
 O5 O 0.7781475 0.75 0.1909300015
 O5 O 0.9031475 0.625 0.0590699985
 O5 O 0.8468525 0.625 0.1909300015
 O5 O 0.8468525 0.625 0.0590699985
 O5 O 0.9031475 0.625 0.1909300015
 O6 O 0.7741599995 0.5236249995 0.125
 O6 O 0.9758400005 0.7263750005 0.125
 O6 O 0.9758400005 0.5236249995 0.125
 O6 O 0.7741599995 0.7263750005 0.125
 O6 O 0.8991599995 0.6486249995 0.125
 O6 O 0.8508400005 0.6013750005 0.125
 O6 O 0.8508400005 0.6486249995 0.125
 O6 O 0.8991599995 0.6013750005 0.125
 O7 O 0.7698449995000001 0.53517999875 0.04336500175
 O7 O 0.9801550005 0.71482000125 0.20663499825
 O7 O 0.9801550005 0.71482000125 0.04336500175
 O7 O 0.7698449995000001 0.53517999875 0.20663499825
 O7 O 0.9801550005 0.53517999875 0.20663499825
 O7 O 0.7698449995000001 0.71482000125 0.04336500175
 O7 O 0.7698449995000001 0.71482000125 0.20663499825
 O7 O 0.9801550005 0.53517999875 0.04336500175
 O7 O 0.8948449995 0.66017999875 0.04336500175
 O7 O 0.8551550004999999 0.58982000125 0.20663499825
 O7 O 0.8551550004999999 0.58982000125 0.04336500175
 O7 O 0.8948449995 0.66017999875 0.20663499825
 O7 O 0.8551550004999999 0.66017999875 0.20663499825
 O7 O 0.8948449995 0.58982000125 0.04336500175
 O7 O 0.8948449995 0.58982000125 0.20663499825
 O7 O 0.8551550004999999 0.66017999875 0.04336500175
 O8 O 0.8125 0.5625 0.0
 O8 O 0.8125 0.5625 0.25
 O8 O 0.9375 0.6875 0.0
 O8 O 0.9375 0.6875 0.25
 O8 O 0.9375 0.5625 0.0
 O8 O 0.9375 0.5625 0.25
 O8 O 0.8125 0.6875 0.0
 O8 O 0.8125 0.6875 0.25
 O9 O 0.78091249975 0.56469249725 0.0
 O9 O 0.78091249975 0.56469249725 0.25
 O9 O 0.96908750025 0.68530750275 0.0
 O9 O 0.96908750025 0.68530750275 0.25
 O9 O 0.96908750025 0.56469249725 0.0
 O9 O 0.96908750025 0.56469249725 0.25
 O9 O 0.78091249975 0.68530750275 0.0
 O9 O 0.78091249975 0.68530750275 0.25
 O9 O 0.90591249975 0.68969249725 0.0
 O9 O 0.90591249975 0.68969249725 0.25
 O9 O 0.84408750025 0.56030750275 0.0
 O9 O 0.84408750025 0.56030750275 0.25
 O9 O 0.84408750025 0.68969249725 0.0
 O9 O 0.84408750025 0.68969249725 0.25
 O9 O 0.90591249975 0.56030750275 0.0
 O9 O 0.90591249975 0.56030750275 0.25
 O10 O 0.75 0.5565750002500001 0.0
 O10 O 0.75 0.5565750002500001 0.25
 O10 O 1.0 0.5565750002500001 0.0
 O10 O 1.0 0.5565750002500001 0.25
 O10 O 0.75 0.6934249997499999 0.0
 O10 O 0.75 0.6934249997499999 0.25
 O10 O 1.0 0.6934249997499999 0.0
 O10 O 1.0 0.6934249997499999 0.25
 O10 O 0.875 0.6815750002500001 0.0
 O10 O 0.875 0.6815750002500001 0.25
 O10 O 0.875 0.5684249997499999 0.0
 O10 O 0.875 0.5684249997499999 0.25
 O2 O 0.7976175025000001 0.58963499975 -0.04322750125
 O2 O 0.7976175025000001 0.58963499975 0.29322750125
 O2 O 0.9523824975 0.66036500025 -0.04322750125
 O2 O 0.9523824975 0.66036500025 0.29322750125
 O2 O 0.9523824975 0.58963499975 -0.04322750125
 O2 O 0.9523824975 0.58963499975 0.29322750125
 O2 O 0.7976175025000001 0.66036500025 -0.04322750125
 O2 O 0.7976175025000001 0.66036500025 0.29322750125
 O2 O 0.9226175025 0.71463499975 -0.04322750125
 O2 O 0.9226175025 0.71463499975 0.29322750125
 O2 O 0.8273824974999999 0.53536500025 -0.04322750125
 O2 O 0.8273824974999999 0.53536500025 0.29322750125
 O2 O 0.8273824974999999 0.71463499975 -0.04322750125
 O2 O 0.8273824974999999 0.71463499975 0.29322750125
 O2 O 0.9226175025 0.53536500025 -0.04322750125
 O2 O 0.9226175025 0.53536500025 0.29322750125
 O7 O 0.7698449995000001 0.53517999875 -0.04336500175
 O7 O 0.7698449995000001 0.53517999875 0.29336500175
 O7 O 0.9801550005 0.71482000125 -0.04336500175
 O7 O 0.9801550005 0.71482000125 0.29336500175
 O7 O 0.9801550005 0.53517999875 -0.04336500175
 O7 O 0.9801550005 0.53517999875 0.29336500175
 O7 O 0.7698449995000001 0.71482000125 -0.04336500175
 O7 O 0.7698449995000001 0.71482000125 0.29336500175
 O7 O 0.8948449995 0.66017999875 -0.04336500175
 O7 O 0.8948449995 0.66017999875 0.29336500175
 O7 O 0.8551550004999999 0.58982000125 -0.04336500175
 O7 O 0.8551550004999999 0.58982000125 0.29336500175
 O7 O 0.8551550004999999 0.66017999875 -0.04336500175
 O7 O 0.8551550004999999 0.66017999875 0.29336500175
 O7 O 0.8948449995 0.58982000125 -0.04336500175
 O7 O 0.8948449995 0.58982000125 0.29336500175
 Si1 Si 0.0672350005 0.7716099992500001 0.0748350025
 Si1 Si 0.1827649995 0.9783900007499999 0.1751649975
 Si1 Si 0.1827649995 0.9783900007499999 0.0748350025
 Si1 Si 0.0672350005 0.7716099992500001 0.1751649975
 Si1 Si 0.1827649995 0.7716099992500001 0.1751649975
 Si1 Si 0.0672350005 0.9783900007499999 0.0748350025
 Si1 Si 0.0672350005 0.9783900007499999 0.1751649975
 Si1 Si 0.1827649995 0.7716099992500001 0.0748350025
 Si1 Si 0.1922350005 0.8966099992500001 0.0748350025
 Si1 Si 0.0577649995 0.8533900007499999 0.1751649975
 Si1 Si 0.0577649995 0.8533900007499999 0.0748350025
 Si1 Si 0.1922350005 0.8966099992500001 0.1751649975
 Si1 Si 0.0577649995 0.8966099992500001 0.1751649975
 Si1 Si 0.1922350005 0.8533900007499999 0.0748350025
 Si1 Si 0.1922350005 0.8533900007499999 0.1751649975
 Si1 Si 0.0577649995 0.8966099992500001 0.0748350025
 Si2 Si 0.03017999975 0.7715750002499999 0.074832499
 Si2 Si 0.21982000025 0.97842499975 0.175167501
 Si2 Si 0.21982000025 0.97842499975 0.074832499
 Si2 Si 0.03017999975 0.7715750002499999 0.175167501
 Si2 Si 0.21982000025 0.7715750002499999 0.175167501
 Si2 Si 0.03017999975 0.97842499975 0.074832499
 Si2 Si 0.03017999975 0.97842499975 0.175167501
 Si2 Si 0.21982000025 0.7715750002499999 0.074832499
 Si2 Si 0.15517999975 0.89657500025 0.074832499
 Si2 Si 0.09482000025 0.85342499975 0.175167501
 Si2 Si 0.09482000025 0.85342499975 0.074832499
 Si2 Si 0.15517999975 0.89657500025 0.175167501
 Si2 Si 0.09482000025 0.89657500025 0.175167501
 Si2 Si 0.15517999975 0.85342499975 0.074832499
 Si2 Si 0.15517999975 0.85342499975 0.175167501
 Si2 Si 0.09482000025 0.89657500025 0.074832499
 Si3 Si 0.047362499 0.8264449985 0.0
 Si3 Si 0.047362499 0.8264449985 0.25
 Si3 Si 0.202637501 0.9235550015 0.0
 Si3 Si 0.202637501 0.9235550015 0.25
 Si3 Si 0.202637501 0.8264449985 0.0
 Si3 Si 0.202637501 0.8264449985 0.25
 Si3 Si 0.047362499 0.9235550015 0.0
 Si3 Si 0.047362499 0.9235550015 0.25
 Si3 Si 0.172362499 0.9514449985 0.0
 Si3 Si 0.172362499 0.9514449985 0.25
 Si3 Si 0.077637501 0.7985550015 0.0
 Si3 Si 0.077637501 0.7985550015 0.25
 Si3 Si 0.077637501 0.9514449985 0.0
 Si3 Si 0.077637501 0.9514449985 0.25
 Si3 Si 0.172362499 0.7985550015 0.0
 Si3 Si 0.172362499 0.7985550015 0.25
 Si4 Si 0.01785499975 0.79804499825 0.0
 Si4 Si 0.01785499975 0.79804499825 0.25
 Si4 Si 0.23214500025 0.95195500175 0.0
 Si4 Si 0.23214500025 0.95195500175 0.25
 Si4 Si 0.23214500025 0.79804499825 0.0
 Si4 Si 0.23214500025 0.79804499825 0.25
 Si4 Si 0.01785499975 0.95195500175 0.0
 Si4 Si 0.01785499975 0.95195500175 0.25
 Si4 Si 0.14285499975 0.92304499825 0.0
 Si4 Si 0.14285499975 0.92304499825 0.25
 Si4 Si 0.10714500025 0.82695500175 0.0
 Si4 Si 0.10714500025 0.82695500175 0.25
 Si4 Si 0.10714500025 0.92304499825 0.0
 Si4 Si 0.10714500025 0.92304499825 0.25
 Si4 Si 0.14285499975 0.82695500175 0.0
 Si4 Si 0.14285499975 0.82695500175 0.25
 O1 O 0.04870250075 0.7775350007499999 0.07191000125
 O1 O 0.20129749925 0.97246499925 0.17808999875
 O1 O 0.20129749925 0.97246499925 0.07191000125
 O1 O 0.04870250075 0.7775350007499999 0.17808999875
 O1 O 0.20129749925 0.7775350007499999 0.17808999875
 O1 O 0.04870250075 0.97246499925 0.07191000125
 O1 O 0.04870250075 0.97246499925 0.17808999875
 O1 O 0.20129749925 0.7775350007499999 0.07191000125
 O1 O 0.17370250075 0.90253500075 0.07191000125
 O1 O 0.07629749925 0.8474649992500001 0.17808999875
 O1 O 0.07629749925 0.8474649992500001 0.07191000125
 O1 O 0.17370250075 0.90253500075 0.17808999875
 O1 O 0.07629749925 0.90253500075 0.17808999875
 O1 O 0.17370250075 0.8474649992500001 0.07191000125
 O1 O 0.17370250075 0.8474649992500001 0.17808999875
 O1 O 0.07629749925 0.90253500075 0.07191000125
 O2 O 0.0773824975 0.78536500025 0.04322750125
 O2 O 0.1726175025 0.96463499975 0.20677249875
 O2 O 0.1726175025 0.96463499975 0.04322750125
 O2 O 0.0773824975 0.78536500025 0.20677249875
 O2 O 0.1726175025 0.78536500025 0.20677249875
 O2 O 0.0773824975 0.96463499975 0.04322750125
 O2 O 0.0773824975 0.96463499975 0.20677249875
 O2 O 0.1726175025 0.78536500025 0.04322750125
 O2 O 0.2023824975 0.91036500025 0.04322750125
 O2 O 0.0476175025 0.83963499975 0.20677249875
 O2 O 0.0476175025 0.83963499975 0.04322750125
 O2 O 0.2023824975 0.91036500025 0.20677249875
 O2 O 0.0476175025 0.91036500025 0.20677249875
 O2 O 0.2023824975 0.83963499975 0.04322750125
 O2 O 0.2023824975 0.83963499975 0.20677249875
 O2 O 0.0476175025 0.91036500025 0.04322750125
 O3 O 0.06933250275 0.75 0.05936750025
 O3 O 0.06933250275 1.0 0.05936750025
 O3 O 0.18066749725 0.75 0.19063249975
 O3 O 0.18066749725 1.0 0.19063249975
 O3 O 0.18066749725 0.75 0.05936750025
 O3 O 0.18066749725 1.0 0.05936750025
 O3 O 0.06933250275 0.75 0.19063249975
 O3 O 0.06933250275 1.0 0.19063249975
 O3 O 0.19433250275 0.875 0.05936750025
 O3 O 0.05566749725 0.875 0.19063249975
 O3 O 0.05566749725 0.875 0.05936750025
 O3 O 0.19433250275 0.875 0.19063249975
 O4 O 0.07323499775 0.77379499925 0.125
 O4 O 0.17676500225 0.97620500075 0.125
 O4 O 0.17676500225 0.77379499925 0.125
 O4 O 0.07323499775 0.97620500075 0.125
 O4 O 0.19823499775 0.89879499925 0.125
 O4 O 0.05176500225 0.85120500075 0.125
 O4 O 0.05176500225 0.89879499925 0.125
 O4 O 0.19823499775 0.85120500075 0.125
 O5 O 0.0281475 0.75 0.0590699985
 O5 O 0.0281475 1.0 0.0590699985
 O5 O 0.2218525 0.75 0.1909300015
 O5 O 0.2218525 1.0 0.1909300015
 O5 O 0.2218525 0.75 0.0590699985
 O5 O 0.2218525 1.0 0.0590699985
 O5 O 0.0281475 0.75 0.1909300015
 O5 O 0.0281475 1.0 0.1909300015
 O5 O 0.1531475 0.875 0.0590699985
 O5 O 0.0968525 0.875 0.1909300015
 O5 O 0.0968525 0.875 0.0590699985
 O5 O 0.1531475 0.875 0.1909300015
 O6 O 0.0241599995 0.7736249995 0.125
 O6 O 0.2258400005 0.9763750005 0.125
 O6 O 0.2258400005 0.7736249995 0.125
 O6 O 0.0241599995 0.9763750005 0.125
 O6 O 0.1491599995 0.8986249995 0.125
 O6 O 0.1008400005 0.8513750005 0.125
 O6 O 0.1008400005 0.8986249995 0.125
 O6 O 0.1491599995 0.8513750005 0.125
 O7 O 0.0198449995 0.78517999875 0.04336500175
 O7 O 0.2301550005 0.96482000125 0.20663499825
 O7 O 0.2301550005 0.96482000125 0.04336500175
 O7 O 0.0198449995 0.78517999875 0.20663499825
 O7 O 0.2301550005 0.78517999875 0.20663499825
 O7 O 0.0198449995 0.96482000125 0.04336500175
 O7 O 0.0198449995 0.96482000125 0.20663499825
 O7 O 0.2301550005 0.78517999875 0.04336500175
 O7 O 0.1448449995 0.91017999875 0.04336500175
 O7 O 0.1051550005 0.83982000125 0.20663499825
 O7 O 0.1051550005 0.83982000125 0.04336500175
 O7 O 0.1448449995 0.91017999875 0.20663499825
 O7 O 0.1051550005 0.91017999875 0.20663499825
 O7 O 0.1448449995 0.83982000125 0.04336500175
 O7 O 0.1448449995 0.83982000125 0.20663499825
 O7 O 0.1051550005 0.91017999875 0.04336500175
 O8 O 0.0625 0.8125 0.0
 O8 O 0.0625 0.8125 0.25
 O8 O 0.1875 0.9375 0.0
 O8 O 0.1875 0.9375 0.25
 O8 O 0.1875 0.8125 0.0
 O8 O 0.1875 0.8125 0.25
 O8 O 0.0625 0.9375 0.0
 O8 O 0.0625 0.9375 0.25
 O9 O 0.03091249975 0.81469249725 0.0
 O9 O 0.03091249975 0.81469249725 0.25
 O9 O 0.21908750025 0.93530750275 0.0
 O9 O 0.21908750025 0.93530750275 0.25
 O9 O 0.21908750025 0.81469249725 0.0
 O9 O 0.21908750025 0.81469249725 0.25
 O9 O 0.03091249975 0.93530750275 0.0
 O9 O 0.03091249975 0.93530750275 0.25
 O9 O 0.15591249975 0.93969249725 0.0
 O9 O 0.15591249975 0.93969249725 0.25
 O9 O 0.09408750025 0.81030750275 0.0
 O9 O 0.09408750025 0.81030750275 0.25
 O9 O 0.09408750025 0.93969249725 0.0
 O9 O 0.09408750025 0.93969249725 0.25
 O9 O 0.15591249975 0.81030750275 0.0
 O9 O 0.15591249975 0.81030750275 0.25
 O10 O 0.0 0.8065750002500001 0.0
 O10 O 0.0 0.8065750002500001 0.25
 O10 O 0.25 0.8065750002500001 0.0
 O10 O 0.25 0.8065750002500001 0.25
 O10 O 0.0 0.9434249997499999 0.0
 O10 O 0.0 0.9434249997499999 0.25
 O10 O 0.25 0.9434249997499999 0.0
 O10 O 0.25 0.9434249997499999 0.25
 O10 O 0.125 0.9315750002500001 0.0
 O10 O 0.125 0.9315750002500001 0.25
 O10 O 0.125 0.8184249997499999 0.0
 O10 O 0.125 0.8184249997499999 0.25
 O2 O 0.0476175025 0.83963499975 -0.04322750125
 O2 O 0.0476175025 0.83963499975 0.29322750125
 O2 O 0.2023824975 0.91036500025 -0.04322750125
 O2 O 0.2023824975 0.91036500025 0.29322750125
 O2 O 0.2023824975 0.83963499975 -0.04322750125
 O2 O 0.2023824975 0.83963499975 0.29322750125
 O2 O 0.0476175025 0.91036500025 -0.04322750125
 O2 O 0.0476175025 0.91036500025 0.29322750125
 O2 O 0.1726175025 0.96463499975 -0.04322750125
 O2 O 0.1726175025 0.96463499975 0.29322750125
 O2 O 0.0773824975 0.78536500025 -0.04322750125
 O2 O 0.0773824975 0.78536500025 0.29322750125
 O2 O 0.0773824975 0.96463499975 -0.04322750125
 O2 O 0.0773824975 0.96463499975 0.29322750125
 O2 O 0.1726175025 0.78536500025 -0.04322750125
 O2 O 0.1726175025 0.78536500025 0.29322750125
 O7 O 0.0198449995 0.78517999875 -0.04336500175
 O7 O 0.0198449995 0.78517999875 0.29336500175
 O7 O 0.2301550005 0.96482000125 -0.04336500175
 O7 O 0.2301550005 0.96482000125 0.29336500175
 O7 O 0.2301550005 0.78517999875 -0.04336500175
 O7 O 0.2301550005 0.78517999875 0.29336500175
 O7 O 0.0198449995 0.96482000125 -0.04336500175
 O7 O 0.0198449995 0.96482000125 0.29336500175
 O7 O 0.1448449995 0.91017999875 -0.04336500175
 O7 O 0.1448449995 0.91017999875 0.29336500175
 O7 O 0.1051550005 0.83982000125 -0.04336500175
 O7 O 0.1051550005 0.83982000125 0.29336500175
 O7 O 0.1051550005 0.91017999875 -0.04336500175
 O7 O 0.1051550005 0.91017999875 0.29336500175
 O7 O 0.1448449995 0.83982000125 -0.04336500175
 O7 O 0.1448449995 0.83982000125 0.29336500175
 Si1 Si 0.3172350005 0.7716099992500001 0.0748350025
 Si1 Si 0.4327649995 0.9783900007499999 0.1751649975
 Si1 Si 0.4327649995 0.9783900007499999 0.0748350025
 Si1 Si 0.3172350005 0.7716099992500001 0.1751649975
 Si1 Si 0.4327649995 0.7716099992500001 0.1751649975
 Si1 Si 0.3172350005 0.9783900007499999 0.0748350025
 Si1 Si 0.3172350005 0.9783900007499999 0.1751649975
 Si1 Si 0.4327649995 0.7716099992500001 0.0748350025
 Si1 Si 0.4422350005 0.8966099992500001 0.0748350025
 Si1 Si 0.3077649995 0.8533900007499999 0.1751649975
 Si1 Si 0.3077649995 0.8533900007499999 0.0748350025
 Si1 Si 0.4422350005 0.8966099992500001 0.1751649975
 Si1 Si 0.3077649995 0.8966099992500001 0.1751649975
 Si1 Si 0.4422350005 0.8533900007499999 0.0748350025
 Si1 Si 0.4422350005 0.8533900007499999 0.1751649975
 Si1 Si 0.3077649995 0.8966099992500001 0.0748350025
 Si2 Si 0.28017999975 0.7715750002499999 0.074832499
 Si2 Si 0.46982000025000004 0.97842499975 0.175167501
 Si2 Si 0.46982000025000004 0.97842499975 0.074832499
 Si2 Si 0.28017999975 0.7715750002499999 0.175167501
 Si2 Si 0.46982000025000004 0.7715750002499999 0.175167501
 Si2 Si 0.28017999975 0.97842499975 0.074832499
 Si2 Si 0.28017999975 0.97842499975 0.175167501
 Si2 Si 0.46982000025000004 0.7715750002499999 0.074832499
 Si2 Si 0.40517999974999996 0.89657500025 0.074832499
 Si2 Si 0.34482000025 0.85342499975 0.175167501
 Si2 Si 0.34482000025 0.85342499975 0.074832499
 Si2 Si 0.40517999974999996 0.89657500025 0.175167501
 Si2 Si 0.34482000025 0.89657500025 0.175167501
 Si2 Si 0.40517999974999996 0.85342499975 0.074832499
 Si2 Si 0.40517999974999996 0.85342499975 0.175167501
 Si2 Si 0.34482000025 0.89657500025 0.074832499
 Si3 Si 0.297362499 0.8264449985 0.0
 Si3 Si 0.297362499 0.8264449985 0.25
 Si3 Si 0.452637501 0.9235550015 0.0
 Si3 Si 0.452637501 0.9235550015 0.25
 Si3 Si 0.452637501 0.8264449985 0.0
 Si3 Si 0.452637501 0.8264449985 0.25
 Si3 Si 0.297362499 0.9235550015 0.0
 Si3 Si 0.297362499 0.9235550015 0.25
 Si3 Si 0.422362499 0.9514449985 0.0
 Si3 Si 0.422362499 0.9514449985 0.25
 Si3 Si 0.327637501 0.7985550015 0.0
 Si3 Si 0.327637501 0.7985550015 0.25
 Si3 Si 0.327637501 0.9514449985 0.0
 Si3 Si 0.327637501 0.9514449985 0.25
 Si3 Si 0.422362499 0.7985550015 0.0
 Si3 Si 0.422362499 0.7985550015 0.25
 Si4 Si 0.26785499975 0.79804499825 0.0
 Si4 Si 0.26785499975 0.79804499825 0.25
 Si4 Si 0.48214500025 0.95195500175 0.0
 Si4 Si 0.48214500025 0.95195500175 0.25
 Si4 Si 0.48214500025 0.79804499825 0.0
 Si4 Si 0.48214500025 0.79804499825 0.25
 Si4 Si 0.26785499975 0.95195500175 0.0
 Si4 Si 0.26785499975 0.95195500175 0.25
 Si4 Si 0.39285499975 0.92304499825 0.0
 Si4 Si 0.39285499975 0.92304499825 0.25
 Si4 Si 0.35714500025 0.82695500175 0.0
 Si4 Si 0.35714500025 0.82695500175 0.25
 Si4 Si 0.35714500025 0.92304499825 0.0
 Si4 Si 0.35714500025 0.92304499825 0.25
 Si4 Si 0.39285499975 0.82695500175 0.0
 Si4 Si 0.39285499975 0.82695500175 0.25
 O1 O 0.29870250075 0.7775350007499999 0.07191000125
 O1 O 0.45129749925 0.97246499925 0.17808999875
 O1 O 0.45129749925 0.97246499925 0.07191000125
 O1 O 0.29870250075 0.7775350007499999 0.17808999875
 O1 O 0.45129749925 0.7775350007499999 0.17808999875
 O1 O 0.29870250075 0.97246499925 0.07191000125
 O1 O 0.29870250075 0.97246499925 0.17808999875
 O1 O 0.45129749925 0.7775350007499999 0.07191000125
 O1 O 0.42370250075 0.90253500075 0.07191000125
 O1 O 0.32629749925 0.8474649992500001 0.17808999875
 O1 O 0.32629749925 0.8474649992500001 0.07191000125
 O1 O 0.42370250075 0.90253500075 0.17808999875
 O1 O 0.32629749925 0.90253500075 0.17808999875
 O1 O 0.42370250075 0.8474649992500001 0.07191000125
 O1 O 0.42370250075 0.8474649992500001 0.17808999875
 O1 O 0.32629749925 0.90253500075 0.07191000125
 O2 O 0.3273824975 0.78536500025 0.04322750125
 O2 O 0.42261750249999996 0.96463499975 0.20677249875
 O2 O 0.42261750249999996 0.96463499975 0.04322750125
 O2 O 0.3273824975 0.78536500025 0.20677249875
 O2 O 0.42261750249999996 0.78536500025 0.20677249875
 O2 O 0.3273824975 0.96463499975 0.04322750125
 O2 O 0.3273824975 0.96463499975 0.20677249875
 O2 O 0.42261750249999996 0.78536500025 0.04322750125
 O2 O 0.45238249750000004 0.91036500025 0.04322750125
 O2 O 0.2976175025 0.83963499975 0.20677249875
 O2 O 0.2976175025 0.83963499975 0.04322750125
 O2 O 0.45238249750000004 0.91036500025 0.20677249875
 O2 O 0.2976175025 0.91036500025 0.20677249875
 O2 O 0.45238249750000004 0.83963499975 0.04322750125
 O2 O 0.45238249750000004 0.83963499975 0.20677249875
 O2 O 0.2976175025 0.91036500025 0.04322750125
 O3 O 0.31933250275 0.75 0.05936750025
 O3 O 0.31933250275 1.0 0.05936750025
 O3 O 0.43066749725 0.75 0.19063249975
 O3 O 0.43066749725 1.0 0.19063249975
 O3 O 0.43066749725 0.75 0.05936750025
 O3 O 0.43066749725 1.0 0.05936750025
 O3 O 0.31933250275 0.75 0.19063249975
 O3 O 0.31933250275 1.0 0.19063249975
 O3 O 0.44433250275 0.875 0.05936750025
 O3 O 0.30566749725 0.875 0.19063249975
 O3 O 0.30566749725 0.875 0.05936750025
 O3 O 0.44433250275 0.875 0.19063249975
 O4 O 0.32323499775 0.77379499925 0.125
 O4 O 0.42676500225 0.97620500075 0.125
 O4 O 0.42676500225 0.77379499925 0.125
 O4 O 0.32323499775 0.97620500075 0.125
 O4 O 0.44823499775 0.89879499925 0.125
 O4 O 0.30176500225 0.85120500075 0.125
 O4 O 0.30176500225 0.89879499925 0.125
 O4 O 0.44823499775 0.85120500075 0.125
 O5 O 0.2781475 0.75 0.0590699985
 O5 O 0.2781475 1.0 0.0590699985
 O5 O 0.4718525 0.75 0.1909300015
 O5 O 0.4718525 1.0 0.1909300015
 O5 O 0.4718525 0.75 0.0590699985
 O5 O 0.4718525 1.0 0.0590699985
 O5 O 0.2781475 0.75 0.1909300015
 O5 O 0.2781475 1.0 0.1909300015
 O5 O 0.4031475 0.875 0.0590699985
 O5 O 0.3468525 0.875 0.1909300015
 O5 O 0.3468525 0.875 0.0590699985
 O5 O 0.4031475 0.875 0.1909300015
 O6 O 0.27415999950000003 0.7736249995 0.125
 O6 O 0.47584000049999997 0.9763750005 0.125
 O6 O 0.47584000049999997 0.7736249995 0.125
 O6 O 0.27415999950000003 0.9763750005 0.125
 O6 O 0.39915999950000003 0.8986249995 0.125
 O6 O 0.35084000049999997 0.8513750005 0.125
 O6 O 0.35084000049999997 0.8986249995 0.125
 O6 O 0.39915999950000003 0.8513750005 0.125
 O7 O 0.2698449995 0.78517999875 0.04336500175
 O7 O 0.48015500050000004 0.96482000125 0.20663499825
 O7 O 0.48015500050000004 0.96482000125 0.04336500175
 O7 O 0.2698449995 0.78517999875 0.20663499825
 O7 O 0.48015500050000004 0.78517999875 0.20663499825
 O7 O 0.2698449995 0.96482000125 0.04336500175
 O7 O 0.2698449995 0.96482000125 0.20663499825
 O7 O 0.48015500050000004 0.78517999875 0.04336500175
 O7 O 0.39484499949999996 0.91017999875 0.04336500175
 O7 O 0.3551550005 0.83982000125 0.20663499825
 O7 O 0.3551550005 0.83982000125 0.04336500175
 O7 O 0.39484499949999996 0.91017999875 0.20663499825
 O7 O 0.3551550005 0.91017999875 0.20663499825
 O7 O 0.39484499949999996 0.83982000125 0.04336500175
 O7 O 0.39484499949999996 0.83982000125 0.20663499825
 O7 O 0.3551550005 0.91017999875 0.04336500175
 O8 O 0.3125 0.8125 0.0
 O8 O 0.3125 0.8125 0.25
 O8 O 0.4375 0.9375 0.0
 O8 O 0.4375 0.9375 0.25
 O8 O 0.4375 0.8125 0.0
 O8 O 0.4375 0.8125 0.25
 O8 O 0.3125 0.9375 0.0
 O8 O 0.3125 0.9375 0.25
 O9 O 0.28091249975 0.81469249725 0.0
 O9 O 0.28091249975 0.81469249725 0.25
 O9 O 0.46908750025 0.93530750275 0.0
 O9 O 0.46908750025 0.93530750275 0.25
 O9 O 0.46908750025 0.81469249725 0.0
 O9 O 0.46908750025 0.81469249725 0.25
 O9 O 0.28091249975 0.93530750275 0.0
 O9 O 0.28091249975 0.93530750275 0.25
 O9 O 0.40591249975 0.93969249725 0.0
 O9 O 0.40591249975 0.93969249725 0.25
 O9 O 0.34408750025 0.81030750275 0.0
 O9 O 0.34408750025 0.81030750275 0.25
 O9 O 0.34408750025 0.93969249725 0.0
 O9 O 0.34408750025 0.93969249725 0.25
 O9 O 0.40591249975 0.81030750275 0.0
 O9 O 0.40591249975 0.81030750275 0.25
 O10 O 0.25 0.8065750002500001 0.0
 O10 O 0.25 0.8065750002500001 0.25
 O10 O 0.5 0.8065750002500001 0.0
 O10 O 0.5 0.8065750002500001 0.25
 O10 O 0.25 0.9434249997499999 0.0
 O10 O 0.25 0.9434249997499999 0.25
 O10 O 0.5 0.9434249997499999 0.0
 O10 O 0.5 0.9434249997499999 0.25
 O10 O 0.375 0.9315750002500001 0.0
 O10 O 0.375 0.9315750002500001 0.25
 O10 O 0.375 0.8184249997499999 0.0
 O10 O 0.375 0.8184249997499999 0.25
 O2 O 0.2976175025 0.83963499975 -0.04322750125
 O2 O 0.2976175025 0.83963499975 0.29322750125
 O2 O 0.45238249750000004 0.91036500025 -0.04322750125
 O2 O 0.45238249750000004 0.91036500025 0.29322750125
 O2 O 0.45238249750000004 0.83963499975 -0.04322750125
 O2 O 0.45238249750000004 0.83963499975 0.29322750125
 O2 O 0.2976175025 0.91036500025 -0.04322750125
 O2 O 0.2976175025 0.91036500025 0.29322750125
 O2 O 0.42261750249999996 0.96463499975 -0.04322750125
 O2 O 0.42261750249999996 0.96463499975 0.29322750125
 O2 O 0.3273824975 0.78536500025 -0.04322750125
 O2 O 0.3273824975 0.78536500025 0.29322750125
 O2 O 0.3273824975 0.96463499975 -0.04322750125
 O2 O 0.3273824975 0.96463499975 0.29322750125
 O2 O 0.42261750249999996 0.78536500025 -0.04322750125
 O2 O 0.42261750249999996 0.78536500025 0.29322750125
 O7 O 0.2698449995 0.78517999875 -0.04336500175
 O7 O 0.2698449995 0.78517999875 0.29336500175
 O7 O 0.48015500050000004 0.96482000125 -0.04336500175
 O7 O 0.48015500050000004 0.96482000125 0.29336500175
 O7 O 0.48015500050000004 0.78517999875 -0.04336500175
 O7 O 0.48015500050000004 0.78517999875 0.29336500175
 O7 O 0.2698449995 0.96482000125 -0.04336500175
 O7 O 0.2698449995 0.96482000125 0.29336500175
 O7 O 0.39484499949999996 0.91017999875 -0.04336500175
 O7 O 0.39484499949999996 0.91017999875 0.29336500175
 O7 O 0.3551550005 0.83982000125 -0.04336500175
 O7 O 0.3551550005 0.83982000125 0.29336500175
 O7 O 0.3551550005 0.91017999875 -0.04336500175
 O7 O 0.3551550005 0.91017999875 0.29336500175
 O7 O 0.39484499949999996 0.83982000125 -0.04336500175
 O7 O 0.39484499949999996 0.83982000125 0.29336500175
 Si1 Si 0.5672350005 0.7716099992500001 0.0748350025
 Si1 Si 0.6827649995 0.9783900007499999 0.1751649975
 Si1 Si 0.6827649995 0.9783900007499999 0.0748350025
 Si1 Si 0.5672350005 0.7716099992500001 0.1751649975
 Si1 Si 0.6827649995 0.7716099992500001 0.1751649975
 Si1 Si 0.5672350005 0.9783900007499999 0.0748350025
 Si1 Si 0.5672350005 0.9783900007499999 0.1751649975
 Si1 Si 0.6827649995 0.7716099992500001 0.0748350025
 Si1 Si 0.6922350005 0.8966099992500001 0.0748350025
 Si1 Si 0.5577649995 0.8533900007499999 0.1751649975
 Si1 Si 0.5577649995 0.8533900007499999 0.0748350025
 Si1 Si 0.6922350005 0.8966099992500001 0.1751649975
 Si1 Si 0.5577649995 0.8966099992500001 0.1751649975
 Si1 Si 0.6922350005 0.8533900007499999 0.0748350025
 Si1 Si 0.6922350005 0.8533900007499999 0.1751649975
 Si1 Si 0.5577649995 0.8966099992500001 0.0748350025
 Si2 Si 0.5301799997500001 0.7715750002499999 0.074832499
 Si2 Si 0.71982000025 0.97842499975 0.175167501
 Si2 Si 0.71982000025 0.97842499975 0.074832499
 Si2 Si 0.5301799997500001 0.7715750002499999 0.175167501
 Si2 Si 0.71982000025 0.7715750002499999 0.175167501
 Si2 Si 0.5301799997500001 0.97842499975 0.074832499
 Si2 Si 0.5301799997500001 0.97842499975 0.175167501
 Si2 Si 0.71982000025 0.7715750002499999 0.074832499
 Si2 Si 0.65517999975 0.89657500025 0.074832499
 Si2 Si 0.5948200002499999 0.85342499975 0.175167501
 Si2 Si 0.5948200002499999 0.85342499975 0.074832499
 Si2 Si 0.65517999975 0.89657500025 0.175167501
 Si2 Si 0.5948200002499999 0.89657500025 0.175167501
 Si2 Si 0.65517999975 0.85342499975 0.074832499
 Si2 Si 0.65517999975 0.85342499975 0.175167501
 Si2 Si 0.5948200002499999 0.89657500025 0.074832499
 Si3 Si 0.547362499 0.8264449985 0.0
 Si3 Si 0.547362499 0.8264449985 0.25
 Si3 Si 0.702637501 0.9235550015 0.0
 Si3 Si 0.702637501 0.9235550015 0.25
 Si3 Si 0.702637501 0.8264449985 0.0
 Si3 Si 0.702637501 0.8264449985 0.25
 Si3 Si 0.547362499 0.9235550015 0.0
 Si3 Si 0.547362499 0.9235550015 0.25
 Si3 Si 0.672362499 0.9514449985 0.0
 Si3 Si 0.672362499 0.9514449985 0.25
 Si3 Si 0.577637501 0.7985550015 0.0
 Si3 Si 0.577637501 0.7985550015 0.25
 Si3 Si 0.577637501 0.9514449985 0.0
 Si3 Si 0.577637501 0.9514449985 0.25
 Si3 Si 0.672362499 0.7985550015 0.0
 Si3 Si 0.672362499 0.7985550015 0.25
 Si4 Si 0.5178549997499999 0.79804499825 0.0
 Si4 Si 0.5178549997499999 0.79804499825 0.25
 Si4 Si 0.7321450002500001 0.95195500175 0.0
 Si4 Si 0.7321450002500001 0.95195500175 0.25
 Si4 Si 0.7321450002500001 0.79804499825 0.0
 Si4 Si 0.7321450002500001 0.79804499825 0.25
 Si4 Si 0.5178549997499999 0.95195500175 0.0
 Si4 Si 0.5178549997499999 0.95195500175 0.25
 Si4 Si 0.6428549997499999 0.92304499825 0.0
 Si4 Si 0.6428549997499999 0.92304499825 0.25
 Si4 Si 0.6071450002500001 0.82695500175 0.0
 Si4 Si 0.6071450002500001 0.82695500175 0.25
 Si4 Si 0.6071450002500001 0.92304499825 0.0
 Si4 Si 0.6071450002500001 0.92304499825 0.25
 Si4 Si 0.6428549997499999 0.82695500175 0.0
 Si4 Si 0.6428549997499999 0.82695500175 0.25
 O1 O 0.5487025007499999 0.7775350007499999 0.07191000125
 O1 O 0.7012974992500001 0.97246499925 0.17808999875
 O1 O 0.7012974992500001 0.97246499925 0.07191000125
 O1 O 0.5487025007499999 0.7775350007499999 0.17808999875
 O1 O 0.7012974992500001 0.7775350007499999 0.17808999875
 O1 O 0.5487025007499999 0.97246499925 0.07191000125
 O1 O 0.5487025007499999 0.97246499925 0.17808999875
 O1 O 0.7012974992500001 0.7775350007499999 0.07191000125
 O1 O 0.6737025007499999 0.90253500075 0.07191000125
 O1 O 0.5762974992500001 0.8474649992500001 0.17808999875
 O1 O 0.5762974992500001 0.8474649992500001 0.07191000125
 O1 O 0.6737025007499999 0.90253500075 0.17808999875
 O1 O 0.5762974992500001 0.90253500075 0.17808999875
 O1 O 0.6737025007499999 0.8474649992500001 0.07191000125
 O1 O 0.6737025007499999 0.8474649992500001 0.17808999875
 O1 O 0.5762974992500001 0.90253500075 0.07191000125
 O2 O 0.5773824974999999 0.78536500025 0.04322750125
 O2 O 0.6726175025 0.96463499975 0.20677249875
 O2 O 0.6726175025 0.96463499975 0.04322750125
 O2 O 0.5773824974999999 0.78536500025 0.20677249875
 O2 O 0.6726175025 0.78536500025 0.20677249875
 O2 O 0.5773824974999999 0.96463499975 0.04322750125
 O2 O 0.5773824974999999 0.96463499975 0.20677249875
 O2 O 0.6726175025 0.78536500025 0.04322750125
 O2 O 0.7023824975 0.91036500025 0.04322750125
 O2 O 0.5476175025000001 0.83963499975 0.20677249875
 O2 O 0.5476175025000001 0.83963499975 0.04322750125
 O2 O 0.7023824975 0.91036500025 0.20677249875
 O2 O 0.5476175025000001 0.91036500025 0.20677249875
 O2 O 0.7023824975 0.83963499975 0.04322750125
 O2 O 0.7023824975 0.83963499975 0.20677249875
 O2 O 0.5476175025000001 0.91036500025 0.04322750125
 O3 O 0.56933250275 0.75 0.05936750025
 O3 O 0.56933250275 1.0 0.05936750025
 O3 O 0.68066749725 0.75 0.19063249975
 O3 O 0.68066749725 1.0 0.19063249975
 O3 O 0.68066749725 0.75 0.05936750025
 O3 O 0.68066749725 1.0 0.05936750025
 O3 O 0.56933250275 0.75 0.19063249975
 O3 O 0.56933250275 1.0 0.19063249975
 O3 O 0.69433250275 0.875 0.05936750025
 O3 O 0.55566749725 0.875 0.19063249975
 O3 O 0.55566749725 0.875 0.05936750025
 O3 O 0.69433250275 0.875 0.19063249975
 O4 O 0.57323499775 0.77379499925 0.125
 O4 O 0.67676500225 0.97620500075 0.125
 O4 O 0.67676500225 0.77379499925 0.125
 O4 O 0.57323499775 0.97620500075 0.125
 O4 O 0.69823499775 0.89879499925 0.125
 O4 O 0.55176500225 0.85120500075 0.125
 O4 O 0.55176500225 0.89879499925 0.125
 O4 O 0.69823499775 0.85120500075 0.125
 O5 O 0.5281475 0.75 0.0590699985
 O5 O 0.5281475 1.0 0.0590699985
 O5 O 0.7218525 0.75 0.1909300015
 O5 O 0.7218525 1.0 0.1909300015
 O5 O 0.7218525 0.75 0.0590699985
 O5 O 0.7218525 1.0 0.0590699985
 O5 O 0.5281475 0.75 0.1909300015
 O5 O 0.5281475 1.0 0.1909300015
 O5 O 0.6531475 0.875 0.0590699985
 O5 O 0.5968525 0.875 0.1909300015
 O5 O 0.5968525 0.875 0.0590699985
 O5 O 0.6531475 0.875 0.1909300015
 O6 O 0.5241599995 0.7736249995 0.125
 O6 O 0.7258400005 0.9763750005 0.125
 O6 O 0.7258400005 0.7736249995 0.125
 O6 O 0.5241599995 0.9763750005 0.125
 O6 O 0.6491599995 0.8986249995 0.125
 O6 O 0.6008400005 0.8513750005 0.125
 O6 O 0.6008400005 0.8986249995 0.125
 O6 O 0.6491599995 0.8513750005 0.125
 O7 O 0.5198449995000001 0.78517999875 0.04336500175
 O7 O 0.7301550005 0.96482000125 0.20663499825
 O7 O 0.7301550005 0.96482000125 0.04336500175
 O7 O 0.5198449995000001 0.78517999875 0.20663499825
 O7 O 0.7301550005 0.78517999875 0.20663499825
 O7 O 0.5198449995000001 0.96482000125 0.04336500175
 O7 O 0.5198449995000001 0.96482000125 0.20663499825
 O7 O 0.7301550005 0.78517999875 0.04336500175
 O7 O 0.6448449995 0.91017999875 0.04336500175
 O7 O 0.6051550004999999 0.83982000125 0.20663499825
 O7 O 0.6051550004999999 0.83982000125 0.04336500175
 O7 O 0.6448449995 0.91017999875 0.20663499825
 O7 O 0.6051550004999999 0.91017999875 0.20663499825
 O7 O 0.6448449995 0.83982000125 0.04336500175
 O7 O 0.6448449995 0.83982000125 0.20663499825
 O7 O 0.6051550004999999 0.91017999875 0.04336500175
 O8 O 0.5625 0.8125 0.0
 O8 O 0.5625 0.8125 0.25
 O8 O 0.6875 0.9375 0.0
 O8 O 0.6875 0.9375 0.25
 O8 O 0.6875 0.8125 0.0
 O8 O 0.6875 0.8125 0.25
 O8 O 0.5625 0.9375 0.0
 O8 O 0.5625 0.9375 0.25
 O9 O 0.53091249975 0.81469249725 0.0
 O9 O 0.53091249975 0.81469249725 0.25
 O9 O 0.71908750025 0.93530750275 0.0
 O9 O 0.71908750025 0.93530750275 0.25
 O9 O 0.71908750025 0.81469249725 0.0
 O9 O 0.71908750025 0.81469249725 0.25
 O9 O 0.53091249975 0.93530750275 0.0
 O9 O 0.53091249975 0.93530750275 0.25
 O9 O 0.65591249975 0.93969249725 0.0
 O9 O 0.65591249975 0.93969249725 0.25
 O9 O 0.59408750025 0.81030750275 0.0
 O9 O 0.59408750025 0.81030750275 0.25
 O9 O 0.59408750025 0.93969249725 0.0
 O9 O 0.59408750025 0.93969249725 0.25
 O9 O 0.65591249975 0.81030750275 0.0
 O9 O 0.65591249975 0.81030750275 0.25
 O10 O 0.5 0.8065750002500001 0.0
 O10 O 0.5 0.8065750002500001 0.25
 O10 O 0.75 0.8065750002500001 0.0
 O10 O 0.75 0.8065750002500001 0.25
 O10 O 0.5 0.9434249997499999 0.0
 O10 O 0.5 0.9434249997499999 0.25
 O10 O 0.75 0.9434249997499999 0.0
 O10 O 0.75 0.9434249997499999 0.25
 O10 O 0.625 0.9315750002500001 0.0
 O10 O 0.625 0.9315750002500001 0.25
 O10 O 0.625 0.8184249997499999 0.0
 O10 O 0.625 0.8184249997499999 0.25
 O2 O 0.5476175025000001 0.83963499975 -0.04322750125
 O2 O 0.5476175025000001 0.83963499975 0.29322750125
 O2 O 0.7023824975 0.91036500025 -0.04322750125
 O2 O 0.7023824975 0.91036500025 0.29322750125
 O2 O 0.7023824975 0.83963499975 -0.04322750125
 O2 O 0.7023824975 0.83963499975 0.29322750125
 O2 O 0.5476175025000001 0.91036500025 -0.04322750125
 O2 O 0.5476175025000001 0.91036500025 0.29322750125
 O2 O 0.6726175025 0.96463499975 -0.04322750125
 O2 O 0.6726175025 0.96463499975 0.29322750125
 O2 O 0.5773824974999999 0.78536500025 -0.04322750125
 O2 O 0.5773824974999999 0.78536500025 0.29322750125
 O2 O 0.5773824974999999 0.96463499975 -0.04322750125
 O2 O 0.5773824974999999 0.96463499975 0.29322750125
 O2 O 0.6726175025 0.78536500025 -0.04322750125
 O2 O 0.6726175025 0.78536500025 0.29322750125
 O7 O 0.5198449995000001 0.78517999875 -0.04336500175
 O7 O 0.5198449995000001 0.78517999875 0.29336500175
 O7 O 0.7301550005 0.96482000125 -0.04336500175
 O7 O 0.7301550005 0.96482000125 0.29336500175
 O7 O 0.7301550005 0.78517999875 -0.04336500175
 O7 O 0.7301550005 0.78517999875 0.29336500175
 O7 O 0.5198449995000001 0.96482000125 -0.04336500175
 O7 O 0.5198449995000001 0.96482000125 0.29336500175
 O7 O 0.6448449995 0.91017999875 -0.04336500175
 O7 O 0.6448449995 0.91017999875 0.29336500175
 O7 O 0.6051550004999999 0.83982000125 -0.04336500175
 O7 O 0.6051550004999999 0.83982000125 0.29336500175
 O7 O 0.6051550004999999 0.91017999875 -0.04336500175
 O7 O 0.6051550004999999 0.91017999875 0.29336500175
 O7 O 0.6448449995 0.83982000125 -0.04336500175
 O7 O 0.6448449995 0.83982000125 0.29336500175
 Si1 Si 0.8172350005 0.7716099992500001 0.0748350025
 Si1 Si 0.9327649995 0.9783900007499999 0.1751649975
 Si1 Si 0.9327649995 0.9783900007499999 0.0748350025
 Si1 Si 0.8172350005 0.7716099992500001 0.1751649975
 Si1 Si 0.9327649995 0.7716099992500001 0.1751649975
 Si1 Si 0.8172350005 0.9783900007499999 0.0748350025
 Si1 Si 0.8172350005 0.9783900007499999 0.1751649975
 Si1 Si 0.9327649995 0.7716099992500001 0.0748350025
 Si1 Si 0.9422350005 0.8966099992500001 0.0748350025
 Si1 Si 0.8077649995 0.8533900007499999 0.1751649975
 Si1 Si 0.8077649995 0.8533900007499999 0.0748350025
 Si1 Si 0.9422350005 0.8966099992500001 0.1751649975
 Si1 Si 0.8077649995 0.8966099992500001 0.1751649975
 Si1 Si 0.9422350005 0.8533900007499999 0.0748350025
 Si1 Si 0.9422350005 0.8533900007499999 0.1751649975
 Si1 Si 0.8077649995 0.8966099992500001 0.0748350025
 Si2 Si 0.7801799997500001 0.7715750002499999 0.074832499
 Si2 Si 0.96982000025 0.97842499975 0.175167501
 Si2 Si 0.96982000025 0.97842499975 0.074832499
 Si2 Si 0.7801799997500001 0.7715750002499999 0.175167501
 Si2 Si 0.96982000025 0.7715750002499999 0.175167501
 Si2 Si 0.7801799997500001 0.97842499975 0.074832499
 Si2 Si 0.7801799997500001 0.97842499975 0.175167501
 Si2 Si 0.96982000025 0.7715750002499999 0.074832499
 Si2 Si 0.90517999975 0.89657500025 0.074832499
 Si2 Si 0.8448200002499999 0.85342499975 0.175167501
 Si2 Si 0.8448200002499999 0.85342499975 0.074832499
 Si2 Si 0.90517999975 0.89657500025 0.175167501
 Si2 Si 0.8448200002499999 0.89657500025 0.175167501
 Si2 Si 0.90517999975 0.85342499975 0.074832499
 Si2 Si 0.90517999975 0.85342499975 0.175167501
 Si2 Si 0.8448200002499999 0.89657500025 0.074832499
 Si3 Si 0.797362499 0.8264449985 0.0
 Si3 Si 0.797362499 0.8264449985 0.25
 Si3 Si 0.952637501 0.9235550015 0.0
 Si3 Si 0.952637501 0.9235550015 0.25
 Si3 Si 0.952637501 0.8264449985 0.0
 Si3 Si 0.952637501 0.8264449985 0.25
 Si3 Si 0.797362499 0.9235550015 0.0
 Si3 Si 0.797362499 0.9235550015 0.25
 Si3 Si 0.922362499 0.9514449985 0.0
 Si3 Si 0.922362499 0.9514449985 0.25
 Si3 Si 0.827637501 0.7985550015 0.0
 Si3 Si 0.827637501 0.7985550015 0.25
 Si3 Si 0.827637501 0.9514449985 0.0
 Si3 Si 0.827637501 0.9514449985 0.25
 Si3 Si 0.922362499 0.7985550015 0.0
 Si3 Si 0.922362499 0.7985550015 0.25
 Si4 Si 0.7678549997499999 0.79804499825 0.0
 Si4 Si 0.7678549997499999 0.79804499825 0.25
 Si4 Si 0.9821450002500001 0.95195500175 0.0
 Si4 Si 0.9821450002500001 0.95195500175 0.25
 Si4 Si 0.9821450002500001 0.79804499825 0.0
 Si4 Si 0.9821450002500001 0.79804499825 0.25
 Si4 Si 0.7678549997499999 0.95195500175 0.0
 Si4 Si 0.7678549997499999 0.95195500175 0.25
 Si4 Si 0.8928549997499999 0.92304499825 0.0
 Si4 Si 0.8928549997499999 0.92304499825 0.25
 Si4 Si 0.8571450002500001 0.82695500175 0.0
 Si4 Si 0.8571450002500001 0.82695500175 0.25
 Si4 Si 0.8571450002500001 0.92304499825 0.0
 Si4 Si 0.8571450002500001 0.92304499825 0.25
 Si4 Si 0.8928549997499999 0.82695500175 0.0
 Si4 Si 0.8928549997499999 0.82695500175 0.25
 O1 O 0.7987025007499999 0.7775350007499999 0.07191000125
 O1 O 0.9512974992500001 0.97246499925 0.17808999875
 O1 O 0.9512974992500001 0.97246499925 0.07191000125
 O1 O 0.7987025007499999 0.7775350007499999 0.17808999875
 O1 O 0.9512974992500001 0.7775350007499999 0.17808999875
 O1 O 0.7987025007499999 0.97246499925 0.07191000125
 O1 O 0.7987025007499999 0.97246499925 0.17808999875
 O1 O 0.9512974992500001 0.7775350007499999 0.07191000125
 O1 O 0.9237025007499999 0.90253500075 0.07191000125
 O1 O 0.8262974992500001 0.8474649992500001 0.17808999875
 O1 O 0.8262974992500001 0.8474649992500001 0.07191000125
 O1 O 0.9237025007499999 0.90253500075 0.17808999875
 O1 O 0.8262974992500001 0.90253500075 0.17808999875
 O1 O 0.9237025007499999 0.8474649992500001 0.07191000125
 O1 O 0.9237025007499999 0.8474649992500001 0.17808999875
 O1 O 0.8262974992500001 0.90253500075 0.07191000125
 O2 O 0.8273824974999999 0.78536500025 0.04322750125
 O2 O 0.9226175025 0.96463499975 0.20677249875
 O2 O 0.9226175025 0.96463499975 0.04322750125
 O2 O 0.8273824974999999 0.78536500025 0.20677249875
 O2 O 0.9226175025 0.78536500025 0.20677249875
 O2 O 0.8273824974999999 0.96463499975 0.04322750125
 O2 O 0.8273824974999999 0.96463499975 0.20677249875
 O2 O 0.9226175025 0.78536500025 0.04322750125
 O2 O 0.9523824975 0.91036500025 0.04322750125
 O2 O 0.7976175025000001 0.83963499975 0.20677249875
 O2 O 0.7976175025000001 0.83963499975 0.04322750125
 O2 O 0.9523824975 0.91036500025 0.20677249875
 O2 O 0.7976175025000001 0.91036500025 0.20677249875
 O2 O 0.9523824975 0.83963499975 0.04322750125
 O2 O 0.9523824975 0.83963499975 0.20677249875
 O2 O 0.7976175025000001 0.91036500025 0.04322750125
 O3 O 0.81933250275 0.75 0.05936750025
 O3 O 0.81933250275 1.0 0.05936750025
 O3 O 0.93066749725 0.75 0.19063249975
 O3 O 0.93066749725 1.0 0.19063249975
 O3 O 0.93066749725 0.75 0.05936750025
 O3 O 0.93066749725 1.0 0.05936750025
 O3 O 0.81933250275 0.75 0.19063249975
 O3 O 0.81933250275 1.0 0.19063249975
 O3 O 0.94433250275 0.875 0.05936750025
 O3 O 0.80566749725 0.875 0.19063249975
 O3 O 0.80566749725 0.875 0.05936750025
 O3 O 0.94433250275 0.875 0.19063249975
 O4 O 0.82323499775 0.77379499925 0.125
 O4 O 0.92676500225 0.97620500075 0.125
 O4 O 0.92676500225 0.77379499925 0.125
 O4 O 0.82323499775 0.97620500075 0.125
 O4 O 0.94823499775 0.89879499925 0.125
 O4 O 0.80176500225 0.85120500075 0.125
 O4 O 0.80176500225 0.89879499925 0.125
 O4 O 0.94823499775 0.85120500075 0.125
 O5 O 0.7781475 0.75 0.0590699985
 O5 O 0.7781475 1.0 0.0590699985
 O5 O 0.9718525 0.75 0.1909300015
 O5 O 0.9718525 1.0 0.1909300015
 O5 O 0.9718525 0.75 0.0590699985
 O5 O 0.9718525 1.0 0.0590699985
 O5 O 0.7781475 0.75 0.1909300015
 O5 O 0.7781475 1.0 0.1909300015
 O5 O 0.9031475 0.875 0.0590699985
 O5 O 0.8468525 0.875 0.1909300015
 O5 O 0.8468525 0.875 0.0590699985
 O5 O 0.9031475 0.875 0.1909300015
 O6 O 0.7741599995 0.7736249995 0.125
 O6 O 0.9758400005 0.9763750005 0.125
 O6 O 0.9758400005 0.7736249995 0.125
 O6 O 0.7741599995 0.9763750005 0.125
 O6 O 0.8991599995 0.8986249995 0.125
 O6 O 0.8508400005 0.8513750005 0.125
 O6 O 0.8508400005 0.8986249995 0.125
 O6 O 0.8991599995 0.8513750005 0.125
 O7 O 0.7698449995000001 0.78517999875 0.04336500175
 O7 O 0.9801550005 0.96482000125 0.20663499825
 O7 O 0.9801550005 0.96482000125 0.04336500175
 O7 O 0.7698449995000001 0.78517999875 0.20663499825
 O7 O 0.9801550005 0.78517999875 0.20663499825
 O7 O 0.7698449995000001 0.96482000125 0.04336500175
 O7 O 0.7698449995000001 0.96482000125 0.20663499825
 O7 O 0.9801550005 0.78517999875 0.04336500175
 O7 O 0.8948449995 0.91017999875 0.04336500175
 O7 O 0.8551550004999999 0.83982000125 0.20663499825
 O7 O 0.8551550004999999 0.83982000125 0.04336500175
 O7 O 0.8948449995 0.91017999875 0.20663499825
 O7 O 0.8551550004999999 0.91017999875 0.20663499825
 O7 O 0.8948449995 0.83982000125 0.04336500175
 O7 O 0.8948449995 0.83982000125 0.20663499825
 O7 O 0.8551550004999999 0.91017999875 0.04336500175
 O8 O 0.8125 0.8125 0.0
 O8 O 0.8125 0.8125 0.25
 O8 O 0.9375 0.9375 0.0
 O8 O 0.9375 0.9375 0.25
 O8 O 0.9375 0.8125 0.0
 O8 O 0.9375 0.8125 0.25
 O8 O 0.8125 0.9375 0.0
 O8 O 0.8125 0.9375 0.25
 O9 O 0.78091249975 0.81469249725 0.0
 O9 O 0.78091249975 0.81469249725 0.25
 O9 O 0.96908750025 0.93530750275 0.0
 O9 O 0.96908750025 0.93530750275 0.25
 O9 O 0.96908750025 0.81469249725 0.0
 O9 O 0.96908750025 0.81469249725 0.25
 O9 O 0.78091249975 0.93530750275 0.0
 O9 O 0.78091249975 0.93530750275 0.25
 O9 O 0.90591249975 0.93969249725 0.0
 O9 O 0.90591249975 0.93969249725 0.25
 O9 O 0.84408750025 0.81030750275 0.0
 O9 O 0.84408750025 0.81030750275 0.25
 O9 O 0.84408750025 0.93969249725 0.0
 O9 O 0.84408750025 0.93969249725 0.25
 O9 O 0.90591249975 0.81030750275 0.0
 O9 O 0.90591249975 0.81030750275 0.25
 O10 O 0.75 0.8065750002500001 0.0
 O10 O 0.75 0.8065750002500001 0.25
 O10 O 1.0 0.8065750002500001 0.0
 O10 O 1.0 0.8065750002500001 0.25
 O10 O 0.75 0.9434249997499999 0.0
 O10 O 0.75 0.9434249997499999 0.25
 O10 O 1.0 0.9434249997499999 0.0
 O10 O 1.0 0.9434249997499999 0.25
 O10 O 0.875 0.9315750002500001 0.0
 O10 O 0.875 0.9315750002500001 0.25
 O10 O 0.875 0.8184249997499999 0.0
 O10 O 0.875 0.8184249997499999 0.25
 O2 O 0.7976175025000001 0.83963499975 -0.04322750125
 O2 O 0.7976175025000001 0.83963499975 0.29322750125
 O2 O 0.9523824975 0.91036500025 -0.04322750125
 O2 O 0.9523824975 0.91036500025 0.29322750125
 O2 O 0.9523824975 0.83963499975 -0.04322750125
 O2 O 0.9523824975 0.83963499975 0.29322750125
 O2 O 0.7976175025000001 0.91036500025 -0.04322750125
 O2 O 0.7976175025000001 0.91036500025 0.29322750125
 O2 O 0.9226175025 0.96463499975 -0.04322750125
 O2 O 0.9226175025 0.96463499975 0.29322750125
 O2 O 0.8273824974999999 0.78536500025 -0.04322750125
 O2 O 0.8273824974999999 0.78536500025 0.29322750125
 O2 O 0.8273824974999999 0.96463499975 -0.04322750125
 O2 O 0.8273824974999999 0.96463499975 0.29322750125
 O2 O 0.9226175025 0.78536500025 -0.04322750125
 O2 O 0.9226175025 0.78536500025 0.29322750125
 O7 O 0.7698449995000001 0.78517999875 -0.04336500175
 O7 O 0.7698449995000001 0.78517999875 0.29336500175
 O7 O 0.9801550005 0.96482000125 -0.04336500175
 O7 O 0.9801550005 0.96482000125 0.29336500175
 O7 O 0.9801550005 0.78517999875 -0.04336500175
 O7 O 0.9801550005 0.78517999875 0.29336500175
 O7 O 0.7698449995000001 0.96482000125 -0.04336500175
 O7 O 0.7698449995000001 0.96482000125 0.29336500175
 O7 O 0.8948449995 0.91017999875 -0.04336500175
 O7 O 0.8948449995 0.91017999875 0.29336500175
 O7 O 0.8551550004999999 0.83982000125 -0.04336500175
 O7 O 0.8551550004999999 0.83982000125 0.29336500175
 O7 O 0.8551550004999999 0.91017999875 -0.04336500175
 O7 O 0.8551550004999999 0.91017999875 0.29336500175
 O7 O 0.8948449995 0.83982000125 -0.04336500175
 O7 O 0.8948449995 0.83982000125 0.29336500175
 Si1 Si 0.0672350005 0.02160999925 0.32483500249999997
 Si1 Si 0.1827649995 0.22839000075 0.42516499750000003
 Si1 Si 0.1827649995 0.22839000075 0.32483500249999997
 Si1 Si 0.0672350005 0.02160999925 0.42516499750000003
 Si1 Si 0.1827649995 0.02160999925 0.42516499750000003
 Si1 Si 0.0672350005 0.22839000075 0.32483500249999997
 Si1 Si 0.0672350005 0.22839000075 0.42516499750000003
 Si1 Si 0.1827649995 0.02160999925 0.32483500249999997
 Si1 Si 0.1922350005 0.14660999925 0.32483500249999997
 Si1 Si 0.0577649995 0.10339000075 0.42516499750000003
 Si1 Si 0.0577649995 0.10339000075 0.32483500249999997
 Si1 Si 0.1922350005 0.14660999925 0.42516499750000003
 Si1 Si 0.0577649995 0.14660999925 0.42516499750000003
 Si1 Si 0.1922350005 0.10339000075 0.32483500249999997
 Si1 Si 0.1922350005 0.10339000075 0.42516499750000003
 Si1 Si 0.0577649995 0.14660999925 0.32483500249999997
 Si2 Si 0.03017999975 0.02157500025 0.324832499
 Si2 Si 0.21982000025 0.22842499975 0.425167501
 Si2 Si 0.21982000025 0.22842499975 0.324832499
 Si2 Si 0.03017999975 0.02157500025 0.425167501
 Si2 Si 0.21982000025 0.02157500025 0.425167501
 Si2 Si 0.03017999975 0.22842499975 0.324832499
 Si2 Si 0.03017999975 0.22842499975 0.425167501
 Si2 Si 0.21982000025 0.02157500025 0.324832499
 Si2 Si 0.15517999975 0.14657500025 0.324832499
 Si2 Si 0.09482000025 0.10342499975 0.425167501
 Si2 Si 0.09482000025 0.10342499975 0.324832499
 Si2 Si 0.15517999975 0.14657500025 0.425167501
 Si2 Si 0.09482000025 0.14657500025 0.425167501
 Si2 Si 0.15517999975 0.10342499975 0.324832499
 Si2 Si 0.15517999975 0.10342499975 0.425167501
 Si2 Si 0.09482000025 0.14657500025 0.324832499
 Si3 Si 0.047362499 0.0764449985 0.25
 Si3 Si 0.047362499 0.0764449985 0.5
 Si3 Si 0.202637501 0.1735550015 0.25
 Si3 Si 0.202637501 0.1735550015 0.5
 Si3 Si 0.202637501 0.0764449985 0.25
 Si3 Si 0.202637501 0.0764449985 0.5
 Si3 Si 0.047362499 0.1735550015 0.25
 Si3 Si 0.047362499 0.1735550015 0.5
 Si3 Si 0.172362499 0.2014449985 0.25
 Si3 Si 0.172362499 0.2014449985 0.5
 Si3 Si 0.077637501 0.0485550015 0.25
 Si3 Si 0.077637501 0.0485550015 0.5
 Si3 Si 0.077637501 0.2014449985 0.25
 Si3 Si 0.077637501 0.2014449985 0.5
 Si3 Si 0.172362499 0.0485550015 0.25
 Si3 Si 0.172362499 0.0485550015 0.5
 Si4 Si 0.01785499975 0.04804499825 0.25
 Si4 Si 0.01785499975 0.04804499825 0.5
 Si4 Si 0.23214500025 0.20195500175 0.25
 Si4 Si 0.23214500025 0.20195500175 0.5
 Si4 Si 0.23214500025 0.04804499825 0.25
 Si4 Si 0.23214500025 0.04804499825 0.5
 Si4 Si 0.01785499975 0.20195500175 0.25
 Si4 Si 0.01785499975 0.20195500175 0.5
 Si4 Si 0.14285499975 0.17304499825 0.25
 Si4 Si 0.14285499975 0.17304499825 0.5
 Si4 Si 0.10714500025 0.07695500175 0.25
 Si4 Si 0.10714500025 0.07695500175 0.5
 Si4 Si 0.10714500025 0.17304499825 0.25
 Si4 Si 0.10714500025 0.17304499825 0.5
 Si4 Si 0.14285499975 0.07695500175 0.25
 Si4 Si 0.14285499975 0.07695500175 0.5
 O1 O 0.04870250075 0.02753500075 0.32191000125
 O1 O 0.20129749925 0.22246499925 0.42808999875
 O1 O 0.20129749925 0.22246499925 0.32191000125
 O1 O 0.04870250075 0.02753500075 0.42808999875
 O1 O 0.20129749925 0.02753500075 0.42808999875
 O1 O 0.04870250075 0.22246499925 0.32191000125
 O1 O 0.04870250075 0.22246499925 0.42808999875
 O1 O 0.20129749925 0.02753500075 0.32191000125
 O1 O 0.17370250075 0.15253500075 0.32191000125
 O1 O 0.07629749925 0.09746499925 0.42808999875
 O1 O 0.07629749925 0.09746499925 0.32191000125
 O1 O 0.17370250075 0.15253500075 0.42808999875
 O1 O 0.07629749925 0.15253500075 0.42808999875
 O1 O 0.17370250075 0.09746499925 0.32191000125
 O1 O 0.17370250075 0.09746499925 0.42808999875
 O1 O 0.07629749925 0.15253500075 0.32191000125
 O2 O 0.0773824975 0.03536500025 0.29322750125
 O2 O 0.1726175025 0.21463499975 0.45677249875000003
 O2 O 0.1726175025 0.21463499975 0.29322750125
 O2 O 0.0773824975 0.03536500025 0.45677249875000003
 O2 O 0.1726175025 0.03536500025 0.45677249875000003
 O2 O 0.0773824975 0.21463499975 0.29322750125
 O2 O 0.0773824975 0.21463499975 0.45677249875000003
 O2 O 0.1726175025 0.03536500025 0.29322750125
 O2 O 0.2023824975 0.16036500025 0.29322750125
 O2 O 0.0476175025 0.08963499975 0.45677249875000003
 O2 O 0.0476175025 0.08963499975 0.29322750125
 O2 O 0.2023824975 0.16036500025 0.45677249875000003
 O2 O 0.0476175025 0.16036500025 0.45677249875000003
 O2 O 0.2023824975 0.08963499975 0.29322750125
 O2 O 0.2023824975 0.08963499975 0.45677249875000003
 O2 O 0.0476175025 0.16036500025 0.29322750125
 O3 O 0.06933250275 0.0 0.30936750025
 O3 O 0.06933250275 0.25 0.30936750025
 O3 O 0.18066749725 0.0 0.44063249974999996
 O3 O 0.18066749725 0.25 0.44063249974999996
 O3 O 0.18066749725 0.0 0.30936750025
 O3 O 0.18066749725 0.25 0.30936750025
 O3 O 0.06933250275 0.0 0.44063249974999996
 O3 O 0.06933250275 0.25 0.44063249974999996
 O3 O 0.19433250275 0.125 0.30936750025
 O3 O 0.05566749725 0.125 0.44063249974999996
 O3 O 0.05566749725 0.125 0.30936750025
 O3 O 0.19433250275 0.125 0.44063249974999996
 O4 O 0.07323499775 0.02379499925 0.375
 O4 O 0.17676500225 0.22620500075 0.375
 O4 O 0.17676500225 0.02379499925 0.375
 O4 O 0.07323499775 0.22620500075 0.375
 O4 O 0.19823499775 0.14879499925 0.375
 O4 O 0.05176500225 0.10120500075 0.375
 O4 O 0.05176500225 0.14879499925 0.375
 O4 O 0.19823499775 0.10120500075 0.375
 O5 O 0.0281475 0.0 0.3090699985
 O5 O 0.0281475 0.25 0.3090699985
 O5 O 0.2218525 0.0 0.4409300015
 O5 O 0.2218525 0.25 0.4409300015
 O5 O 0.2218525 0.0 0.3090699985
 O5 O 0.2218525 0.25 0.3090699985
 O5 O 0.0281475 0.0 0.4409300015
 O5 O 0.0281475 0.25 0.4409300015
 O5 O 0.1531475 0.125 0.3090699985
 O5 O 0.0968525 0.125 0.4409300015
 O5 O 0.0968525 0.125 0.3090699985
 O5 O 0.1531475 0.125 0.4409300015
 O6 O 0.0241599995 0.0236249995 0.375
 O6 O 0.2258400005 0.2263750005 0.375
 O6 O 0.2258400005 0.0236249995 0.375
 O6 O 0.0241599995 0.2263750005 0.375
 O6 O 0.1491599995 0.1486249995 0.375
 O6 O 0.1008400005 0.1013750005 0.375
 O6 O 0.1008400005 0.1486249995 0.375
 O6 O 0.1491599995 0.1013750005 0.375
 O7 O 0.0198449995 0.03517999875 0.29336500175
 O7 O 0.2301550005 0.21482000125 0.45663499825
 O7 O 0.2301550005 0.21482000125 0.29336500175
 O7 O 0.0198449995 0.03517999875 0.45663499825
 O7 O 0.2301550005 0.03517999875 0.45663499825
 O7 O 0.0198449995 0.21482000125 0.29336500175
 O7 O 0.0198449995 0.21482000125 0.45663499825
 O7 O 0.2301550005 0.03517999875 0.29336500175
 O7 O 0.1448449995 0.16017999875 0.29336500175
 O7 O 0.1051550005 0.08982000125 0.45663499825
 O7 O 0.1051550005 0.08982000125 0.29336500175
 O7 O 0.1448449995 0.16017999875 0.45663499825
 O7 O 0.1051550005 0.16017999875 0.45663499825
 O7 O 0.1448449995 0.08982000125 0.29336500175
 O7 O 0.1448449995 0.08982000125 0.45663499825
 O7 O 0.1051550005 0.16017999875 0.29336500175
 O8 O 0.0625 0.0625 0.25
 O8 O 0.0625 0.0625 0.5
 O8 O 0.1875 0.1875 0.25
 O8 O 0.1875 0.1875 0.5
 O8 O 0.1875 0.0625 0.25
 O8 O 0.1875 0.0625 0.5
 O8 O 0.0625 0.1875 0.25
 O8 O 0.0625 0.1875 0.5
 O9 O 0.03091249975 0.06469249725 0.25
 O9 O 0.03091249975 0.06469249725 0.5
 O9 O 0.21908750025 0.18530750275 0.25
 O9 O 0.21908750025 0.18530750275 0.5
 O9 O 0.21908750025 0.06469249725 0.25
 O9 O 0.21908750025 0.06469249725 0.5
 O9 O 0.03091249975 0.18530750275 0.25
 O9 O 0.03091249975 0.18530750275 0.5
 O9 O 0.15591249975 0.18969249725 0.25
 O9 O 0.15591249975 0.18969249725 0.5
 O9 O 0.09408750025 0.06030750275 0.25
 O9 O 0.09408750025 0.06030750275 0.5
 O9 O 0.09408750025 0.18969249725 0.25
 O9 O 0.09408750025 0.18969249725 0.5
 O9 O 0.15591249975 0.06030750275 0.25
 O9 O 0.15591249975 0.06030750275 0.5
 O10 O 0.0 0.05657500025 0.25
 O10 O 0.0 0.05657500025 0.5
 O10 O 0.25 0.05657500025 0.25
 O10 O 0.25 0.05657500025 0.5
 O10 O 0.0 0.19342499975 0.25
 O10 O 0.0 0.19342499975 0.5
 O10 O 0.25 0.19342499975 0.25
 O10 O 0.25 0.19342499975 0.5
 O10 O 0.125 0.18157500025 0.25
 O10 O 0.125 0.18157500025 0.5
 O10 O 0.125 0.06842499975 0.25
 O10 O 0.125 0.06842499975 0.5
 O2 O 0.0476175025 0.08963499975 0.20677249875
 O2 O 0.0476175025 0.08963499975 0.5432275012500001
 O2 O 0.2023824975 0.16036500025 0.20677249875
 O2 O 0.2023824975 0.16036500025 0.5432275012500001
 O2 O 0.2023824975 0.08963499975 0.20677249875
 O2 O 0.2023824975 0.08963499975 0.5432275012500001
 O2 O 0.0476175025 0.16036500025 0.20677249875
 O2 O 0.0476175025 0.16036500025 0.5432275012500001
 O2 O 0.1726175025 0.21463499975 0.20677249875
 O2 O 0.1726175025 0.21463499975 0.5432275012500001
 O2 O 0.0773824975 0.03536500025 0.20677249875
 O2 O 0.0773824975 0.03536500025 0.5432275012500001
 O2 O 0.0773824975 0.21463499975 0.20677249875
 O2 O 0.0773824975 0.21463499975 0.5432275012500001
 O2 O 0.1726175025 0.03536500025 0.20677249875
 O2 O 0.1726175025 0.03536500025 0.5432275012500001
 O7 O 0.0198449995 0.03517999875 0.20663499825
 O7 O 0.0198449995 0.03517999875 0.54336500175
 O7 O 0.2301550005 0.21482000125 0.20663499825
 O7 O 0.2301550005 0.21482000125 0.54336500175
 O7 O 0.2301550005 0.03517999875 0.20663499825
 O7 O 0.2301550005 0.03517999875 0.54336500175
 O7 O 0.0198449995 0.21482000125 0.20663499825
 O7 O 0.0198449995 0.21482000125 0.54336500175
 O7 O 0.1448449995 0.16017999875 0.20663499825
 O7 O 0.1448449995 0.16017999875 0.54336500175
 O7 O 0.1051550005 0.08982000125 0.20663499825
 O7 O 0.1051550005 0.08982000125 0.54336500175
 O7 O 0.1051550005 0.16017999875 0.20663499825
 O7 O 0.1051550005 0.16017999875 0.54336500175
 O7 O 0.1448449995 0.08982000125 0.20663499825
 O7 O 0.1448449995 0.08982000125 0.54336500175
 Si1 Si 0.3172350005 0.02160999925 0.32483500249999997
 Si1 Si 0.4327649995 0.22839000075 0.42516499750000003
 Si1 Si 0.4327649995 0.22839000075 0.32483500249999997
 Si1 Si 0.3172350005 0.02160999925 0.42516499750000003
 Si1 Si 0.4327649995 0.02160999925 0.42516499750000003
 Si1 Si 0.3172350005 0.22839000075 0.32483500249999997
 Si1 Si 0.3172350005 0.22839000075 0.42516499750000003
 Si1 Si 0.4327649995 0.02160999925 0.32483500249999997
 Si1 Si 0.4422350005 0.14660999925 0.32483500249999997
 Si1 Si 0.3077649995 0.10339000075 0.42516499750000003
 Si1 Si 0.3077649995 0.10339000075 0.32483500249999997
 Si1 Si 0.4422350005 0.14660999925 0.42516499750000003
 Si1 Si 0.3077649995 0.14660999925 0.42516499750000003
 Si1 Si 0.4422350005 0.10339000075 0.32483500249999997
 Si1 Si 0.4422350005 0.10339000075 0.42516499750000003
 Si1 Si 0.3077649995 0.14660999925 0.32483500249999997
 Si2 Si 0.28017999975 0.02157500025 0.324832499
 Si2 Si 0.46982000025000004 0.22842499975 0.425167501
 Si2 Si 0.46982000025000004 0.22842499975 0.324832499
 Si2 Si 0.28017999975 0.02157500025 0.425167501
 Si2 Si 0.46982000025000004 0.02157500025 0.425167501
 Si2 Si 0.28017999975 0.22842499975 0.324832499
 Si2 Si 0.28017999975 0.22842499975 0.425167501
 Si2 Si 0.46982000025000004 0.02157500025 0.324832499
 Si2 Si 0.40517999974999996 0.14657500025 0.324832499
 Si2 Si 0.34482000025 0.10342499975 0.425167501
 Si2 Si 0.34482000025 0.10342499975 0.324832499
 Si2 Si 0.40517999974999996 0.14657500025 0.425167501
 Si2 Si 0.34482000025 0.14657500025 0.425167501
 Si2 Si 0.40517999974999996 0.10342499975 0.324832499
 Si2 Si 0.40517999974999996 0.10342499975 0.425167501
 Si2 Si 0.34482000025 0.14657500025 0.324832499
 Si3 Si 0.297362499 0.0764449985 0.25
 Si3 Si 0.297362499 0.0764449985 0.5
 Si3 Si 0.452637501 0.1735550015 0.25
 Si3 Si 0.452637501 0.1735550015 0.5
 Si3 Si 0.452637501 0.0764449985 0.25
 Si3 Si 0.452637501 0.0764449985 0.5
 Si3 Si 0.297362499 0.1735550015 0.25
 Si3 Si 0.297362499 0.1735550015 0.5
 Si3 Si 0.422362499 0.2014449985 0.25
 Si3 Si 0.422362499 0.2014449985 0.5
 Si3 Si 0.327637501 0.0485550015 0.25
 Si3 Si 0.327637501 0.0485550015 0.5
 Si3 Si 0.327637501 0.2014449985 0.25
 Si3 Si 0.327637501 0.2014449985 0.5
 Si3 Si 0.422362499 0.0485550015 0.25
 Si3 Si 0.422362499 0.0485550015 0.5
 Si4 Si 0.26785499975 0.04804499825 0.25
 Si4 Si 0.26785499975 0.04804499825 0.5
 Si4 Si 0.48214500025 0.20195500175 0.25
 Si4 Si 0.48214500025 0.20195500175 0.5
 Si4 Si 0.48214500025 0.04804499825 0.25
 Si4 Si 0.48214500025 0.04804499825 0.5
 Si4 Si 0.26785499975 0.20195500175 0.25
 Si4 Si 0.26785499975 0.20195500175 0.5
 Si4 Si 0.39285499975 0.17304499825 0.25
 Si4 Si 0.39285499975 0.17304499825 0.5
 Si4 Si 0.35714500025 0.07695500175 0.25
 Si4 Si 0.35714500025 0.07695500175 0.5
 Si4 Si 0.35714500025 0.17304499825 0.25
 Si4 Si 0.35714500025 0.17304499825 0.5
 Si4 Si 0.39285499975 0.07695500175 0.25
 Si4 Si 0.39285499975 0.07695500175 0.5
 O1 O 0.29870250075 0.02753500075 0.32191000125
 O1 O 0.45129749925 0.22246499925 0.42808999875
 O1 O 0.45129749925 0.22246499925 0.32191000125
 O1 O 0.29870250075 0.02753500075 0.42808999875
 O1 O 0.45129749925 0.02753500075 0.42808999875
 O1 O 0.29870250075 0.22246499925 0.32191000125
 O1 O 0.29870250075 0.22246499925 0.42808999875
 O1 O 0.45129749925 0.02753500075 0.32191000125
 O1 O 0.42370250075 0.15253500075 0.32191000125
 O1 O 0.32629749925 0.09746499925 0.42808999875
 O1 O 0.32629749925 0.09746499925 0.32191000125
 O1 O 0.42370250075 0.15253500075 0.42808999875
 O1 O 0.32629749925 0.15253500075 0.42808999875
 O1 O 0.42370250075 0.09746499925 0.32191000125
 O1 O 0.42370250075 0.09746499925 0.42808999875
 O1 O 0.32629749925 0.15253500075 0.32191000125
 O2 O 0.3273824975 0.03536500025 0.29322750125
 O2 O 0.42261750249999996 0.21463499975 0.45677249875000003
 O2 O 0.42261750249999996 0.21463499975 0.29322750125
 O2 O 0.3273824975 0.03536500025 0.45677249875000003
 O2 O 0.42261750249999996 0.03536500025 0.45677249875000003
 O2 O 0.3273824975 0.21463499975 0.29322750125
 O2 O 0.3273824975 0.21463499975 0.45677249875000003
 O2 O 0.42261750249999996 0.03536500025 0.29322750125
 O2 O 0.45238249750000004 0.16036500025 0.29322750125
 O2 O 0.2976175025 0.08963499975 0.45677249875000003
 O2 O 0.2976175025 0.08963499975 0.29322750125
 O2 O 0.45238249750000004 0.16036500025 0.45677249875000003
 O2 O 0.2976175025 0.16036500025 0.45677249875000003
 O2 O 0.45238249750000004 0.08963499975 0.29322750125
 O2 O 0.45238249750000004 0.08963499975 0.45677249875000003
 O2 O 0.2976175025 0.16036500025 0.29322750125
 O3 O 0.31933250275 0.0 0.30936750025
 O3 O 0.31933250275 0.25 0.30936750025
 O3 O 0.43066749725 0.0 0.44063249974999996
 O3 O 0.43066749725 0.25 0.44063249974999996
 O3 O 0.43066749725 0.0 0.30936750025
 O3 O 0.43066749725 0.25 0.30936750025
 O3 O 0.31933250275 0.0 0.44063249974999996
 O3 O 0.31933250275 0.25 0.44063249974999996
 O3 O 0.44433250275 0.125 0.30936750025
 O3 O 0.30566749725 0.125 0.44063249974999996
 O3 O 0.30566749725 0.125 0.30936750025
 O3 O 0.44433250275 0.125 0.44063249974999996
 O4 O 0.32323499775 0.02379499925 0.375
 O4 O 0.42676500225 0.22620500075 0.375
 O4 O 0.42676500225 0.02379499925 0.375
 O4 O 0.32323499775 0.22620500075 0.375
 O4 O 0.44823499775 0.14879499925 0.375
 O4 O 0.30176500225 0.10120500075 0.375
 O4 O 0.30176500225 0.14879499925 0.375
 O4 O 0.44823499775 0.10120500075 0.375
 O5 O 0.2781475 0.0 0.3090699985
 O5 O 0.2781475 0.25 0.3090699985
 O5 O 0.4718525 0.0 0.4409300015
 O5 O 0.4718525 0.25 0.4409300015
 O5 O 0.4718525 0.0 0.3090699985
 O5 O 0.4718525 0.25 0.3090699985
 O5 O 0.2781475 0.0 0.4409300015
 O5 O 0.2781475 0.25 0.4409300015
 O5 O 0.4031475 0.125 0.3090699985
 O5 O 0.3468525 0.125 0.4409300015
 O5 O 0.3468525 0.125 0.3090699985
 O5 O 0.4031475 0.125 0.4409300015
 O6 O 0.27415999950000003 0.0236249995 0.375
 O6 O 0.47584000049999997 0.2263750005 0.375
 O6 O 0.47584000049999997 0.0236249995 0.375
 O6 O 0.27415999950000003 0.2263750005 0.375
 O6 O 0.39915999950000003 0.1486249995 0.375
 O6 O 0.35084000049999997 0.1013750005 0.375
 O6 O 0.35084000049999997 0.1486249995 0.375
 O6 O 0.39915999950000003 0.1013750005 0.375
 O7 O 0.2698449995 0.03517999875 0.29336500175
 O7 O 0.48015500050000004 0.21482000125 0.45663499825
 O7 O 0.48015500050000004 0.21482000125 0.29336500175
 O7 O 0.2698449995 0.03517999875 0.45663499825
 O7 O 0.48015500050000004 0.03517999875 0.45663499825
 O7 O 0.2698449995 0.21482000125 0.29336500175
 O7 O 0.2698449995 0.21482000125 0.45663499825
 O7 O 0.48015500050000004 0.03517999875 0.29336500175
 O7 O 0.39484499949999996 0.16017999875 0.29336500175
 O7 O 0.3551550005 0.08982000125 0.45663499825
 O7 O 0.3551550005 0.08982000125 0.29336500175
 O7 O 0.39484499949999996 0.16017999875 0.45663499825
 O7 O 0.3551550005 0.16017999875 0.45663499825
 O7 O 0.39484499949999996 0.08982000125 0.29336500175
 O7 O 0.39484499949999996 0.08982000125 0.45663499825
 O7 O 0.3551550005 0.16017999875 0.29336500175
 O8 O 0.3125 0.0625 0.25
 O8 O 0.3125 0.0625 0.5
 O8 O 0.4375 0.1875 0.25
 O8 O 0.4375 0.1875 0.5
 O8 O 0.4375 0.0625 0.25
 O8 O 0.4375 0.0625 0.5
 O8 O 0.3125 0.1875 0.25
 O8 O 0.3125 0.1875 0.5
 O9 O 0.28091249975 0.06469249725 0.25
 O9 O 0.28091249975 0.06469249725 0.5
 O9 O 0.46908750025 0.18530750275 0.25
 O9 O 0.46908750025 0.18530750275 0.5
 O9 O 0.46908750025 0.06469249725 0.25
 O9 O 0.46908750025 0.06469249725 0.5
 O9 O 0.28091249975 0.18530750275 0.25
 O9 O 0.28091249975 0.18530750275 0.5
 O9 O 0.40591249975 0.18969249725 0.25
 O9 O 0.40591249975 0.18969249725 0.5
 O9 O 0.34408750025 0.06030750275 0.25
 O9 O 0.34408750025 0.06030750275 0.5
 O9 O 0.34408750025 0.18969249725 0.25
 O9 O 0.34408750025 0.18969249725 0.5
 O9 O 0.40591249975 0.06030750275 0.25
 O9 O 0.40591249975 0.06030750275 0.5
 O10 O 0.25 0.05657500025 0.25
 O10 O 0.25 0.05657500025 0.5
 O10 O 0.5 0.05657500025 0.25
 O10 O 0.5 0.05657500025 0.5
 O10 O 0.25 0.19342499975 0.25
 O10 O 0.25 0.19342499975 0.5
 O10 O 0.5 0.19342499975 0.25
 O10 O 0.5 0.19342499975 0.5
 O10 O 0.375 0.18157500025 0.25
 O10 O 0.375 0.18157500025 0.5
 O10 O 0.375 0.06842499975 0.25
 O10 O 0.375 0.06842499975 0.5
 O2 O 0.2976175025 0.08963499975 0.20677249875
 O2 O 0.2976175025 0.08963499975 0.5432275012500001
 O2 O 0.45238249750000004 0.16036500025 0.20677249875
 O2 O 0.45238249750000004 0.16036500025 0.5432275012500001
 O2 O 0.45238249750000004 0.08963499975 0.20677249875
 O2 O 0.45238249750000004 0.08963499975 0.5432275012500001
 O2 O 0.2976175025 0.16036500025 0.20677249875
 O2 O 0.2976175025 0.16036500025 0.5432275012500001
 O2 O 0.42261750249999996 0.21463499975 0.20677249875
 O2 O 0.42261750249999996 0.21463499975 0.5432275012500001
 O2 O 0.3273824975 0.03536500025 0.20677249875
 O2 O 0.3273824975 0.03536500025 0.5432275012500001
 O2 O 0.3273824975 0.21463499975 0.20677249875
 O2 O 0.3273824975 0.21463499975 0.5432275012500001
 O2 O 0.42261750249999996 0.03536500025 0.20677249875
 O2 O 0.42261750249999996 0.03536500025 0.5432275012500001
 O7 O 0.2698449995 0.03517999875 0.20663499825
 O7 O 0.2698449995 0.03517999875 0.54336500175
 O7 O 0.48015500050000004 0.21482000125 0.20663499825
 O7 O 0.48015500050000004 0.21482000125 0.54336500175
 O7 O 0.48015500050000004 0.03517999875 0.20663499825
 O7 O 0.48015500050000004 0.03517999875 0.54336500175
 O7 O 0.2698449995 0.21482000125 0.20663499825
 O7 O 0.2698449995 0.21482000125 0.54336500175
 O7 O 0.39484499949999996 0.16017999875 0.20663499825
 O7 O 0.39484499949999996 0.16017999875 0.54336500175
 O7 O 0.3551550005 0.08982000125 0.20663499825
 O7 O 0.3551550005 0.08982000125 0.54336500175
 O7 O 0.3551550005 0.16017999875 0.20663499825
 O7 O 0.3551550005 0.16017999875 0.54336500175
 O7 O 0.39484499949999996 0.08982000125 0.20663499825
 O7 O 0.39484499949999996 0.08982000125 0.54336500175
 Si1 Si 0.5672350005 0.02160999925 0.32483500249999997
 Si1 Si 0.6827649995 0.22839000075 0.42516499750000003
 Si1 Si 0.6827649995 0.22839000075 0.32483500249999997
 Si1 Si 0.5672350005 0.02160999925 0.42516499750000003
 Si1 Si 0.6827649995 0.02160999925 0.42516499750000003
 Si1 Si 0.5672350005 0.22839000075 0.32483500249999997
 Si1 Si 0.5672350005 0.22839000075 0.42516499750000003
 Si1 Si 0.6827649995 0.02160999925 0.32483500249999997
 Si1 Si 0.6922350005 0.14660999925 0.32483500249999997
 Si1 Si 0.5577649995 0.10339000075 0.42516499750000003
 Si1 Si 0.5577649995 0.10339000075 0.32483500249999997
 Si1 Si 0.6922350005 0.14660999925 0.42516499750000003
 Si1 Si 0.5577649995 0.14660999925 0.42516499750000003
 Si1 Si 0.6922350005 0.10339000075 0.32483500249999997
 Si1 Si 0.6922350005 0.10339000075 0.42516499750000003
 Si1 Si 0.5577649995 0.14660999925 0.32483500249999997
 Si2 Si 0.5301799997500001 0.02157500025 0.324832499
 Si2 Si 0.71982000025 0.22842499975 0.425167501
 Si2 Si 0.71982000025 0.22842499975 0.324832499
 Si2 Si 0.5301799997500001 0.02157500025 0.425167501
 Si2 Si 0.71982000025 0.02157500025 0.425167501
 Si2 Si 0.5301799997500001 0.22842499975 0.324832499
 Si2 Si 0.5301799997500001 0.22842499975 0.425167501
 Si2 Si 0.71982000025 0.02157500025 0.324832499
 Si2 Si 0.65517999975 0.14657500025 0.324832499
 Si2 Si 0.5948200002499999 0.10342499975 0.425167501
 Si2 Si 0.5948200002499999 0.10342499975 0.324832499
 Si2 Si 0.65517999975 0.14657500025 0.425167501
 Si2 Si 0.5948200002499999 0.14657500025 0.425167501
 Si2 Si 0.65517999975 0.10342499975 0.324832499
 Si2 Si 0.65517999975 0.10342499975 0.425167501
 Si2 Si 0.5948200002499999 0.14657500025 0.324832499
 Si3 Si 0.547362499 0.0764449985 0.25
 Si3 Si 0.547362499 0.0764449985 0.5
 Si3 Si 0.702637501 0.1735550015 0.25
 Si3 Si 0.702637501 0.1735550015 0.5
 Si3 Si 0.702637501 0.0764449985 0.25
 Si3 Si 0.702637501 0.0764449985 0.5
 Si3 Si 0.547362499 0.1735550015 0.25
 Si3 Si 0.547362499 0.1735550015 0.5
 Si3 Si 0.672362499 0.2014449985 0.25
 Si3 Si 0.672362499 0.2014449985 0.5
 Si3 Si 0.577637501 0.0485550015 0.25
 Si3 Si 0.577637501 0.0485550015 0.5
 Si3 Si 0.577637501 0.2014449985 0.25
 Si3 Si 0.577637501 0.2014449985 0.5
 Si3 Si 0.672362499 0.0485550015 0.25
 Si3 Si 0.672362499 0.0485550015 0.5
 Si4 Si 0.5178549997499999 0.04804499825 0.25
 Si4 Si 0.5178549997499999 0.04804499825 0.5
 Si4 Si 0.7321450002500001 0.20195500175 0.25
 Si4 Si 0.7321450002500001 0.20195500175 0.5
 Si4 Si 0.7321450002500001 0.04804499825 0.25
 Si4 Si 0.7321450002500001 0.04804499825 0.5
 Si4 Si 0.5178549997499999 0.20195500175 0.25
 Si4 Si 0.5178549997499999 0.20195500175 0.5
 Si4 Si 0.6428549997499999 0.17304499825 0.25
 Si4 Si 0.6428549997499999 0.17304499825 0.5
 Si4 Si 0.6071450002500001 0.07695500175 0.25
 Si4 Si 0.6071450002500001 0.07695500175 0.5
 Si4 Si 0.6071450002500001 0.17304499825 0.25
 Si4 Si 0.6071450002500001 0.17304499825 0.5
 Si4 Si 0.6428549997499999 0.07695500175 0.25
 Si4 Si 0.6428549997499999 0.07695500175 0.5
 O1 O 0.5487025007499999 0.02753500075 0.32191000125
 O1 O 0.7012974992500001 0.22246499925 0.42808999875
 O1 O 0.7012974992500001 0.22246499925 0.32191000125
 O1 O 0.5487025007499999 0.02753500075 0.42808999875
 O1 O 0.7012974992500001 0.02753500075 0.42808999875
 O1 O 0.5487025007499999 0.22246499925 0.32191000125
 O1 O 0.5487025007499999 0.22246499925 0.42808999875
 O1 O 0.7012974992500001 0.02753500075 0.32191000125
 O1 O 0.6737025007499999 0.15253500075 0.32191000125
 O1 O 0.5762974992500001 0.09746499925 0.42808999875
 O1 O 0.5762974992500001 0.09746499925 0.32191000125
 O1 O 0.6737025007499999 0.15253500075 0.42808999875
 O1 O 0.5762974992500001 0.15253500075 0.42808999875
 O1 O 0.6737025007499999 0.09746499925 0.32191000125
 O1 O 0.6737025007499999 0.09746499925 0.42808999875
 O1 O 0.5762974992500001 0.15253500075 0.32191000125
 O2 O 0.5773824974999999 0.03536500025 0.29322750125
 O2 O 0.6726175025 0.21463499975 0.45677249875000003
 O2 O 0.6726175025 0.21463499975 0.29322750125
 O2 O 0.5773824974999999 0.03536500025 0.45677249875000003
 O2 O 0.6726175025 0.03536500025 0.45677249875000003
 O2 O 0.5773824974999999 0.21463499975 0.29322750125
 O2 O 0.5773824974999999 0.21463499975 0.45677249875000003
 O2 O 0.6726175025 0.03536500025 0.29322750125
 O2 O 0.7023824975 0.16036500025 0.29322750125
 O2 O 0.5476175025000001 0.08963499975 0.45677249875000003
 O2 O 0.5476175025000001 0.08963499975 0.29322750125
 O2 O 0.7023824975 0.16036500025 0.45677249875000003
 O2 O 0.5476175025000001 0.16036500025 0.45677249875000003
 O2 O 0.7023824975 0.08963499975 0.29322750125
 O2 O 0.7023824975 0.08963499975 0.45677249875000003
 O2 O 0.5476175025000001 0.16036500025 0.29322750125
 O3 O 0.56933250275 0.0 0.30936750025
 O3 O 0.56933250275 0.25 0.30936750025
 O3 O 0.68066749725 0.0 0.44063249974999996
 O3 O 0.68066749725 0.25 0.44063249974999996
 O3 O 0.68066749725 0.0 0.30936750025
 O3 O 0.68066749725 0.25 0.30936750025
 O3 O 0.56933250275 0.0 0.44063249974999996
 O3 O 0.56933250275 0.25 0.44063249974999996
 O3 O 0.69433250275 0.125 0.30936750025
 O3 O 0.55566749725 0.125 0.44063249974999996
 O3 O 0.55566749725 0.125 0.30936750025
 O3 O 0.69433250275 0.125 0.44063249974999996
 O4 O 0.57323499775 0.02379499925 0.375
 O4 O 0.67676500225 0.22620500075 0.375
 O4 O 0.67676500225 0.02379499925 0.375
 O4 O 0.57323499775 0.22620500075 0.375
 O4 O 0.69823499775 0.14879499925 0.375
 O4 O 0.55176500225 0.10120500075 0.375
 O4 O 0.55176500225 0.14879499925 0.375
 O4 O 0.69823499775 0.10120500075 0.375
 O5 O 0.5281475 0.0 0.3090699985
 O5 O 0.5281475 0.25 0.3090699985
 O5 O 0.7218525 0.0 0.4409300015
 O5 O 0.7218525 0.25 0.4409300015
 O5 O 0.7218525 0.0 0.3090699985
 O5 O 0.7218525 0.25 0.3090699985
 O5 O 0.5281475 0.0 0.4409300015
 O5 O 0.5281475 0.25 0.4409300015
 O5 O 0.6531475 0.125 0.3090699985
 O5 O 0.5968525 0.125 0.4409300015
 O5 O 0.5968525 0.125 0.3090699985
 O5 O 0.6531475 0.125 0.4409300015
 O6 O 0.5241599995 0.0236249995 0.375
 O6 O 0.7258400005 0.2263750005 0.375
 O6 O 0.7258400005 0.0236249995 0.375
 O6 O 0.5241599995 0.2263750005 0.375
 O6 O 0.6491599995 0.1486249995 0.375
 O6 O 0.6008400005 0.1013750005 0.375
 O6 O 0.6008400005 0.1486249995 0.375
 O6 O 0.6491599995 0.1013750005 0.375
 O7 O 0.5198449995000001 0.03517999875 0.29336500175
 O7 O 0.7301550005 0.21482000125 0.45663499825
 O7 O 0.7301550005 0.21482000125 0.29336500175
 O7 O 0.5198449995000001 0.03517999875 0.45663499825
 O7 O 0.7301550005 0.03517999875 0.45663499825
 O7 O 0.5198449995000001 0.21482000125 0.29336500175
 O7 O 0.5198449995000001 0.21482000125 0.45663499825
 O7 O 0.7301550005 0.03517999875 0.29336500175
 O7 O 0.6448449995 0.16017999875 0.29336500175
 O7 O 0.6051550004999999 0.08982000125 0.45663499825
 O7 O 0.6051550004999999 0.08982000125 0.29336500175
 O7 O 0.6448449995 0.16017999875 0.45663499825
 O7 O 0.6051550004999999 0.16017999875 0.45663499825
 O7 O 0.6448449995 0.08982000125 0.29336500175
 O7 O 0.6448449995 0.08982000125 0.45663499825
 O7 O 0.6051550004999999 0.16017999875 0.29336500175
 O8 O 0.5625 0.0625 0.25
 O8 O 0.5625 0.0625 0.5
 O8 O 0.6875 0.1875 0.25
 O8 O 0.6875 0.1875 0.5
 O8 O 0.6875 0.0625 0.25
 O8 O 0.6875 0.0625 0.5
 O8 O 0.5625 0.1875 0.25
 O8 O 0.5625 0.1875 0.5
 O9 O 0.53091249975 0.06469249725 0.25
 O9 O 0.53091249975 0.06469249725 0.5
 O9 O 0.71908750025 0.18530750275 0.25
 O9 O 0.71908750025 0.18530750275 0.5
 O9 O 0.71908750025 0.06469249725 0.25
 O9 O 0.71908750025 0.06469249725 0.5
 O9 O 0.53091249975 0.18530750275 0.25
 O9 O 0.53091249975 0.18530750275 0.5
 O9 O 0.65591249975 0.18969249725 0.25
 O9 O 0.65591249975 0.18969249725 0.5
 O9 O 0.59408750025 0.06030750275 0.25
 O9 O 0.59408750025 0.06030750275 0.5
 O9 O 0.59408750025 0.18969249725 0.25
 O9 O 0.59408750025 0.18969249725 0.5
 O9 O 0.65591249975 0.06030750275 0.25
 O9 O 0.65591249975 0.06030750275 0.5
 O10 O 0.5 0.05657500025 0.25
 O10 O 0.5 0.05657500025 0.5
 O10 O 0.75 0.05657500025 0.25
 O10 O 0.75 0.05657500025 0.5
 O10 O 0.5 0.19342499975 0.25
 O10 O 0.5 0.19342499975 0.5
 O10 O 0.75 0.19342499975 0.25
 O10 O 0.75 0.19342499975 0.5
 O10 O 0.625 0.18157500025 0.25
 O10 O 0.625 0.18157500025 0.5
 O10 O 0.625 0.06842499975 0.25
 O10 O 0.625 0.06842499975 0.5
 O2 O 0.5476175025000001 0.08963499975 0.20677249875
 O2 O 0.5476175025000001 0.08963499975 0.5432275012500001
 O2 O 0.7023824975 0.16036500025 0.20677249875
 O2 O 0.7023824975 0.16036500025 0.5432275012500001
 O2 O 0.7023824975 0.08963499975 0.20677249875
 O2 O 0.7023824975 0.08963499975 0.5432275012500001
 O2 O 0.5476175025000001 0.16036500025 0.20677249875
 O2 O 0.5476175025000001 0.16036500025 0.5432275012500001
 O2 O 0.6726175025 0.21463499975 0.20677249875
 O2 O 0.6726175025 0.21463499975 0.5432275012500001
 O2 O 0.5773824974999999 0.03536500025 0.20677249875
 O2 O 0.5773824974999999 0.03536500025 0.5432275012500001
 O2 O 0.5773824974999999 0.21463499975 0.20677249875
 O2 O 0.5773824974999999 0.21463499975 0.5432275012500001
 O2 O 0.6726175025 0.03536500025 0.20677249875
 O2 O 0.6726175025 0.03536500025 0.5432275012500001
 O7 O 0.5198449995000001 0.03517999875 0.20663499825
 O7 O 0.5198449995000001 0.03517999875 0.54336500175
 O7 O 0.7301550005 0.21482000125 0.20663499825
 O7 O 0.7301550005 0.21482000125 0.54336500175
 O7 O 0.7301550005 0.03517999875 0.20663499825
 O7 O 0.7301550005 0.03517999875 0.54336500175
 O7 O 0.5198449995000001 0.21482000125 0.20663499825
 O7 O 0.5198449995000001 0.21482000125 0.54336500175
 O7 O 0.6448449995 0.16017999875 0.20663499825
 O7 O 0.6448449995 0.16017999875 0.54336500175
 O7 O 0.6051550004999999 0.08982000125 0.20663499825
 O7 O 0.6051550004999999 0.08982000125 0.54336500175
 O7 O 0.6051550004999999 0.16017999875 0.20663499825
 O7 O 0.6051550004999999 0.16017999875 0.54336500175
 O7 O 0.6448449995 0.08982000125 0.20663499825
 O7 O 0.6448449995 0.08982000125 0.54336500175
 Si1 Si 0.8172350005 0.02160999925 0.32483500249999997
 Si1 Si 0.9327649995 0.22839000075 0.42516499750000003
 Si1 Si 0.9327649995 0.22839000075 0.32483500249999997
 Si1 Si 0.8172350005 0.02160999925 0.42516499750000003
 Si1 Si 0.9327649995 0.02160999925 0.42516499750000003
 Si1 Si 0.8172350005 0.22839000075 0.32483500249999997
 Si1 Si 0.8172350005 0.22839000075 0.42516499750000003
 Si1 Si 0.9327649995 0.02160999925 0.32483500249999997
 Si1 Si 0.9422350005 0.14660999925 0.32483500249999997
 Si1 Si 0.8077649995 0.10339000075 0.42516499750000003
 Si1 Si 0.8077649995 0.10339000075 0.32483500249999997
 Si1 Si 0.9422350005 0.14660999925 0.42516499750000003
 Si1 Si 0.8077649995 0.14660999925 0.42516499750000003
 Si1 Si 0.9422350005 0.10339000075 0.32483500249999997
 Si1 Si 0.9422350005 0.10339000075 0.42516499750000003
 Si1 Si 0.8077649995 0.14660999925 0.32483500249999997
 Si2 Si 0.7801799997500001 0.02157500025 0.324832499
 Si2 Si 0.96982000025 0.22842499975 0.425167501
 Si2 Si 0.96982000025 0.22842499975 0.324832499
 Si2 Si 0.7801799997500001 0.02157500025 0.425167501
 Si2 Si 0.96982000025 0.02157500025 0.425167501
 Si2 Si 0.7801799997500001 0.22842499975 0.324832499
 Si2 Si 0.7801799997500001 0.22842499975 0.425167501
 Si2 Si 0.96982000025 0.02157500025 0.324832499
 Si2 Si 0.90517999975 0.14657500025 0.324832499
 Si2 Si 0.8448200002499999 0.10342499975 0.425167501
 Si2 Si 0.8448200002499999 0.10342499975 0.324832499
 Si2 Si 0.90517999975 0.14657500025 0.425167501
 Si2 Si 0.8448200002499999 0.14657500025 0.425167501
 Si2 Si 0.90517999975 0.10342499975 0.324832499
 Si2 Si 0.90517999975 0.10342499975 0.425167501
 Si2 Si 0.8448200002499999 0.14657500025 0.324832499
 Si3 Si 0.797362499 0.0764449985 0.25
 Si3 Si 0.797362499 0.0764449985 0.5
 Si3 Si 0.952637501 0.1735550015 0.25
 Si3 Si 0.952637501 0.1735550015 0.5
 Si3 Si 0.952637501 0.0764449985 0.25
 Si3 Si 0.952637501 0.0764449985 0.5
 Si3 Si 0.797362499 0.1735550015 0.25
 Si3 Si 0.797362499 0.1735550015 0.5
 Si3 Si 0.922362499 0.2014449985 0.25
 Si3 Si 0.922362499 0.2014449985 0.5
 Si3 Si 0.827637501 0.0485550015 0.25
 Si3 Si 0.827637501 0.0485550015 0.5
 Si3 Si 0.827637501 0.2014449985 0.25
 Si3 Si 0.827637501 0.2014449985 0.5
 Si3 Si 0.922362499 0.0485550015 0.25
 Si3 Si 0.922362499 0.0485550015 0.5
 Si4 Si 0.7678549997499999 0.04804499825 0.25
 Si4 Si 0.7678549997499999 0.04804499825 0.5
 Si4 Si 0.9821450002500001 0.20195500175 0.25
 Si4 Si 0.9821450002500001 0.20195500175 0.5
 Si4 Si 0.9821450002500001 0.04804499825 0.25
 Si4 Si 0.9821450002500001 0.04804499825 0.5
 Si4 Si 0.7678549997499999 0.20195500175 0.25
 Si4 Si 0.7678549997499999 0.20195500175 0.5
 Si4 Si 0.8928549997499999 0.17304499825 0.25
 Si4 Si 0.8928549997499999 0.17304499825 0.5
 Si4 Si 0.8571450002500001 0.07695500175 0.25
 Si4 Si 0.8571450002500001 0.07695500175 0.5
 Si4 Si 0.8571450002500001 0.17304499825 0.25
 Si4 Si 0.8571450002500001 0.17304499825 0.5
 Si4 Si 0.8928549997499999 0.07695500175 0.25
 Si4 Si 0.8928549997499999 0.07695500175 0.5
 O1 O 0.7987025007499999 0.02753500075 0.32191000125
 O1 O 0.9512974992500001 0.22246499925 0.42808999875
 O1 O 0.9512974992500001 0.22246499925 0.32191000125
 O1 O 0.7987025007499999 0.02753500075 0.42808999875
 O1 O 0.9512974992500001 0.02753500075 0.42808999875
 O1 O 0.7987025007499999 0.22246499925 0.32191000125
 O1 O 0.7987025007499999 0.22246499925 0.42808999875
 O1 O 0.9512974992500001 0.02753500075 0.32191000125
 O1 O 0.9237025007499999 0.15253500075 0.32191000125
 O1 O 0.8262974992500001 0.09746499925 0.42808999875
 O1 O 0.8262974992500001 0.09746499925 0.32191000125
 O1 O 0.9237025007499999 0.15253500075 0.42808999875
 O1 O 0.8262974992500001 0.15253500075 0.42808999875
 O1 O 0.9237025007499999 0.09746499925 0.32191000125
 O1 O 0.9237025007499999 0.09746499925 0.42808999875
 O1 O 0.8262974992500001 0.15253500075 0.32191000125
 O2 O 0.8273824974999999 0.03536500025 0.29322750125
 O2 O 0.9226175025 0.21463499975 0.45677249875000003
 O2 O 0.9226175025 0.21463499975 0.29322750125
 O2 O 0.8273824974999999 0.03536500025 0.45677249875000003
 O2 O 0.9226175025 0.03536500025 0.45677249875000003
 O2 O 0.8273824974999999 0.21463499975 0.29322750125
 O2 O 0.8273824974999999 0.21463499975 0.45677249875000003
 O2 O 0.9226175025 0.03536500025 0.29322750125
 O2 O 0.9523824975 0.16036500025 0.29322750125
 O2 O 0.7976175025000001 0.08963499975 0.45677249875000003
 O2 O 0.7976175025000001 0.08963499975 0.29322750125
 O2 O 0.9523824975 0.16036500025 0.45677249875000003
 O2 O 0.7976175025000001 0.16036500025 0.45677249875000003
 O2 O 0.9523824975 0.08963499975 0.29322750125
 O2 O 0.9523824975 0.08963499975 0.45677249875000003
 O2 O 0.7976175025000001 0.16036500025 0.29322750125
 O3 O 0.81933250275 0.0 0.30936750025
 O3 O 0.81933250275 0.25 0.30936750025
 O3 O 0.93066749725 0.0 0.44063249974999996
 O3 O 0.93066749725 0.25 0.44063249974999996
 O3 O 0.93066749725 0.0 0.30936750025
 O3 O 0.93066749725 0.25 0.30936750025
 O3 O 0.81933250275 0.0 0.44063249974999996
 O3 O 0.81933250275 0.25 0.44063249974999996
 O3 O 0.94433250275 0.125 0.30936750025
 O3 O 0.80566749725 0.125 0.44063249974999996
 O3 O 0.80566749725 0.125 0.30936750025
 O3 O 0.94433250275 0.125 0.44063249974999996
 O4 O 0.82323499775 0.02379499925 0.375
 O4 O 0.92676500225 0.22620500075 0.375
 O4 O 0.92676500225 0.02379499925 0.375
 O4 O 0.82323499775 0.22620500075 0.375
 O4 O 0.94823499775 0.14879499925 0.375
 O4 O 0.80176500225 0.10120500075 0.375
 O4 O 0.80176500225 0.14879499925 0.375
 O4 O 0.94823499775 0.10120500075 0.375
 O5 O 0.7781475 0.0 0.3090699985
 O5 O 0.7781475 0.25 0.3090699985
 O5 O 0.9718525 0.0 0.4409300015
 O5 O 0.9718525 0.25 0.4409300015
 O5 O 0.9718525 0.0 0.3090699985
 O5 O 0.9718525 0.25 0.3090699985
 O5 O 0.7781475 0.0 0.4409300015
 O5 O 0.7781475 0.25 0.4409300015
 O5 O 0.9031475 0.125 0.3090699985
 O5 O 0.8468525 0.125 0.4409300015
 O5 O 0.8468525 0.125 0.3090699985
 O5 O 0.9031475 0.125 0.4409300015
 O6 O 0.7741599995 0.0236249995 0.375
 O6 O 0.9758400005 0.2263750005 0.375
 O6 O 0.9758400005 0.0236249995 0.375
 O6 O 0.7741599995 0.2263750005 0.375
 O6 O 0.8991599995 0.1486249995 0.375
 O6 O 0.8508400005 0.1013750005 0.375
 O6 O 0.8508400005 0.1486249995 0.375
 O6 O 0.8991599995 0.1013750005 0.375
 O7 O 0.7698449995000001 0.03517999875 0.29336500175
 O7 O 0.9801550005 0.21482000125 0.45663499825
 O7 O 0.9801550005 0.21482000125 0.29336500175
 O7 O 0.7698449995000001 0.03517999875 0.45663499825
 O7 O 0.9801550005 0.03517999875 0.45663499825
 O7 O 0.7698449995000001 0.21482000125 0.29336500175
 O7 O 0.7698449995000001 0.21482000125 0.45663499825
 O7 O 0.9801550005 0.03517999875 0.29336500175
 O7 O 0.8948449995 0.16017999875 0.29336500175
 O7 O 0.8551550004999999 0.08982000125 0.45663499825
 O7 O 0.8551550004999999 0.08982000125 0.29336500175
 O7 O 0.8948449995 0.16017999875 0.45663499825
 O7 O 0.8551550004999999 0.16017999875 0.45663499825
 O7 O 0.8948449995 0.08982000125 0.29336500175
 O7 O 0.8948449995 0.08982000125 0.45663499825
 O7 O 0.8551550004999999 0.16017999875 0.29336500175
 O8 O 0.8125 0.0625 0.25
 O8 O 0.8125 0.0625 0.5
 O8 O 0.9375 0.1875 0.25
 O8 O 0.9375 0.1875 0.5
 O8 O 0.9375 0.0625 0.25
 O8 O 0.9375 0.0625 0.5
 O8 O 0.8125 0.1875 0.25
 O8 O 0.8125 0.1875 0.5
 O9 O 0.78091249975 0.06469249725 0.25
 O9 O 0.78091249975 0.06469249725 0.5
 O9 O 0.96908750025 0.18530750275 0.25
 O9 O 0.96908750025 0.18530750275 0.5
 O9 O 0.96908750025 0.06469249725 0.25
 O9 O 0.96908750025 0.06469249725 0.5
 O9 O 0.78091249975 0.18530750275 0.25
 O9 O 0.78091249975 0.18530750275 0.5
 O9 O 0.90591249975 0.18969249725 0.25
 O9 O 0.90591249975 0.18969249725 0.5
 O9 O 0.84408750025 0.06030750275 0.25
 O9 O 0.84408750025 0.06030750275 0.5
 O9 O 0.84408750025 0.18969249725 0.25
 O9 O 0.84408750025 0.18969249725 0.5
 O9 O 0.90591249975 0.06030750275 0.25
 O9 O 0.90591249975 0.06030750275 0.5
 O10 O 0.75 0.05657500025 0.25
 O10 O 0.75 0.05657500025 0.5
 O10 O 1.0 0.05657500025 0.25
 O10 O 1.0 0.05657500025 0.5
 O10 O 0.75 0.19342499975 0.25
 O10 O 0.75 0.19342499975 0.5
 O10 O 1.0 0.19342499975 0.25
 O10 O 1.0 0.19342499975 0.5
 O10 O 0.875 0.18157500025 0.25
 O10 O 0.875 0.18157500025 0.5
 O10 O 0.875 0.06842499975 0.25
 O10 O 0.875 0.06842499975 0.5
 O2 O 0.7976175025000001 0.08963499975 0.20677249875
 O2 O 0.7976175025000001 0.08963499975 0.5432275012500001
 O2 O 0.9523824975 0.16036500025 0.20677249875
 O2 O 0.9523824975 0.16036500025 0.5432275012500001
 O2 O 0.9523824975 0.08963499975 0.20677249875
 O2 O 0.9523824975 0.08963499975 0.5432275012500001
 O2 O 0.7976175025000001 0.16036500025 0.20677249875
 O2 O 0.7976175025000001 0.16036500025 0.5432275012500001
 O2 O 0.9226175025 0.21463499975 0.20677249875
 O2 O 0.9226175025 0.21463499975 0.5432275012500001
 O2 O 0.8273824974999999 0.03536500025 0.20677249875
 O2 O 0.8273824974999999 0.03536500025 0.5432275012500001
 O2 O 0.8273824974999999 0.21463499975 0.20677249875
 O2 O 0.8273824974999999 0.21463499975 0.5432275012500001
 O2 O 0.9226175025 0.03536500025 0.20677249875
 O2 O 0.9226175025 0.03536500025 0.5432275012500001
 O7 O 0.7698449995000001 0.03517999875 0.20663499825
 O7 O 0.7698449995000001 0.03517999875 0.54336500175
 O7 O 0.9801550005 0.21482000125 0.20663499825
 O7 O 0.9801550005 0.21482000125 0.54336500175
 O7 O 0.9801550005 0.03517999875 0.20663499825
 O7 O 0.9801550005 0.03517999875 0.54336500175
 O7 O 0.7698449995000001 0.21482000125 0.20663499825
 O7 O 0.7698449995000001 0.21482000125 0.54336500175
 O7 O 0.8948449995 0.16017999875 0.20663499825
 O7 O 0.8948449995 0.16017999875 0.54336500175
 O7 O 0.8551550004999999 0.08982000125 0.20663499825
 O7 O 0.8551550004999999 0.08982000125 0.54336500175
 O7 O 0.8551550004999999 0.16017999875 0.20663499825
 O7 O 0.8551550004999999 0.16017999875 0.54336500175
 O7 O 0.8948449995 0.08982000125 0.20663499825
 O7 O 0.8948449995 0.08982000125 0.54336500175
 Si1 Si 0.0672350005 0.27160999925 0.32483500249999997
 Si1 Si 0.1827649995 0.47839000075 0.42516499750000003
 Si1 Si 0.1827649995 0.47839000075 0.32483500249999997
 Si1 Si 0.0672350005 0.27160999925 0.42516499750000003
 Si1 Si 0.1827649995 0.27160999925 0.42516499750000003
 Si1 Si 0.0672350005 0.47839000075 0.32483500249999997
 Si1 Si 0.0672350005 0.47839000075 0.42516499750000003
 Si1 Si 0.1827649995 0.27160999925 0.32483500249999997
 Si1 Si 0.1922350005 0.39660999925 0.32483500249999997
 Si1 Si 0.0577649995 0.35339000075 0.42516499750000003
 Si1 Si 0.0577649995 0.35339000075 0.32483500249999997
 Si1 Si 0.1922350005 0.39660999925 0.42516499750000003
 Si1 Si 0.0577649995 0.39660999925 0.42516499750000003
 Si1 Si 0.1922350005 0.35339000075 0.32483500249999997
 Si1 Si 0.1922350005 0.35339000075 0.42516499750000003
 Si1 Si 0.0577649995 0.39660999925 0.32483500249999997
 Si2 Si 0.03017999975 0.27157500025 0.324832499
 Si2 Si 0.21982000025 0.47842499974999997 0.425167501
 Si2 Si 0.21982000025 0.47842499974999997 0.324832499
 Si2 Si 0.03017999975 0.27157500025 0.425167501
 Si2 Si 0.21982000025 0.27157500025 0.425167501
 Si2 Si 0.03017999975 0.47842499974999997 0.324832499
 Si2 Si 0.03017999975 0.47842499974999997 0.425167501
 Si2 Si 0.21982000025 0.27157500025 0.324832499
 Si2 Si 0.15517999975 0.39657500025000003 0.324832499
 Si2 Si 0.09482000025 0.35342499974999997 0.425167501
 Si2 Si 0.09482000025 0.35342499974999997 0.324832499
 Si2 Si 0.15517999975 0.39657500025000003 0.425167501
 Si2 Si 0.09482000025 0.39657500025000003 0.425167501
 Si2 Si 0.15517999975 0.35342499974999997 0.324832499
 Si2 Si 0.15517999975 0.35342499974999997 0.425167501
 Si2 Si 0.09482000025 0.39657500025000003 0.324832499
 Si3 Si 0.047362499 0.32644499849999997 0.25
 Si3 Si 0.047362499 0.32644499849999997 0.5
 Si3 Si 0.202637501 0.42355500150000003 0.25
 Si3 Si 0.202637501 0.42355500150000003 0.5
 Si3 Si 0.202637501 0.32644499849999997 0.25
 Si3 Si 0.202637501 0.32644499849999997 0.5
 Si3 Si 0.047362499 0.42355500150000003 0.25
 Si3 Si 0.047362499 0.42355500150000003 0.5
 Si3 Si 0.172362499 0.45144499849999997 0.25
 Si3 Si 0.172362499 0.45144499849999997 0.5
 Si3 Si 0.077637501 0.29855500150000003 0.25
 Si3 Si 0.077637501 0.29855500150000003 0.5
 Si3 Si 0.077637501 0.45144499849999997 0.25
 Si3 Si 0.077637501 0.45144499849999997 0.5
 Si3 Si 0.172362499 0.29855500150000003 0.25
 Si3 Si 0.172362499 0.29855500150000003 0.5
 Si4 Si 0.01785499975 0.29804499824999997 0.25
 Si4 Si 0.01785499975 0.29804499824999997 0.5
 Si4 Si 0.23214500025 0.45195500175000003 0.25
 Si4 Si 0.23214500025 0.45195500175000003 0.5
 Si4 Si 0.23214500025 0.29804499824999997 0.25
 Si4 Si 0.23214500025 0.29804499824999997 0.5
 Si4 Si 0.01785499975 0.45195500175000003 0.25
 Si4 Si 0.01785499975 0.45195500175000003 0.5
 Si4 Si 0.14285499975 0.42304499824999997 0.25
 Si4 Si 0.14285499975 0.42304499824999997 0.5
 Si4 Si 0.10714500025 0.32695500175000003 0.25
 Si4 Si 0.10714500025 0.32695500175000003 0.5
 Si4 Si 0.10714500025 0.42304499824999997 0.25
 Si4 Si 0.10714500025 0.42304499824999997 0.5
 Si4 Si 0.14285499975 0.32695500175000003 0.25
 Si4 Si 0.14285499975 0.32695500175000003 0.5
 O1 O 0.04870250075 0.27753500075 0.32191000125
 O1 O 0.20129749925 0.47246499924999996 0.42808999875
 O1 O 0.20129749925 0.47246499924999996 0.32191000125
 O1 O 0.04870250075 0.27753500075 0.42808999875
 O1 O 0.20129749925 0.27753500075 0.42808999875
 O1 O 0.04870250075 0.47246499924999996 0.32191000125
 O1 O 0.04870250075 0.47246499924999996 0.42808999875
 O1 O 0.20129749925 0.27753500075 0.32191000125
 O1 O 0.17370250075 0.40253500075000004 0.32191000125
 O1 O 0.07629749925 0.34746499925 0.42808999875
 O1 O 0.07629749925 0.34746499925 0.32191000125
 O1 O 0.17370250075 0.40253500075000004 0.42808999875
 O1 O 0.07629749925 0.40253500075000004 0.42808999875
 O1 O 0.17370250075 0.34746499925 0.32191000125
 O1 O 0.17370250075 0.34746499925 0.42808999875
 O1 O 0.07629749925 0.40253500075000004 0.32191000125
 O2 O 0.0773824975 0.28536500025 0.29322750125
 O2 O 0.1726175025 0.46463499975 0.45677249875000003
 O2 O 0.1726175025 0.46463499975 0.29322750125
 O2 O 0.0773824975 0.28536500025 0.45677249875000003
 O2 O 0.1726175025 0.28536500025 0.45677249875000003
 O2 O 0.0773824975 0.46463499975 0.29322750125
 O2 O 0.0773824975 0.46463499975 0.45677249875000003
 O2 O 0.1726175025 0.28536500025 0.29322750125
 O2 O 0.2023824975 0.41036500025 0.29322750125
 O2 O 0.0476175025 0.33963499975 0.45677249875000003
 O2 O 0.0476175025 0.33963499975 0.29322750125
 O2 O 0.2023824975 0.41036500025 0.45677249875000003
 O2 O 0.0476175025 0.41036500025 0.45677249875000003
 O2 O 0.2023824975 0.33963499975 0.29322750125
 O2 O 0.2023824975 0.33963499975 0.45677249875000003
 O2 O 0.0476175025 0.41036500025 0.29322750125
 O3 O 0.06933250275 0.25 0.30936750025
 O3 O 0.06933250275 0.5 0.30936750025
 O3 O 0.18066749725 0.25 0.44063249974999996
 O3 O 0.18066749725 0.5 0.44063249974999996
 O3 O 0.18066749725 0.25 0.30936750025
 O3 O 0.18066749725 0.5 0.30936750025
 O3 O 0.06933250275 0.25 0.44063249974999996
 O3 O 0.06933250275 0.5 0.44063249974999996
 O3 O 0.19433250275 0.375 0.30936750025
 O3 O 0.05566749725 0.375 0.44063249974999996
 O3 O 0.05566749725 0.375 0.30936750025
 O3 O 0.19433250275 0.375 0.44063249974999996
 O4 O 0.07323499775 0.27379499925 0.375
 O4 O 0.17676500225 0.47620500075 0.375
 O4 O 0.17676500225 0.27379499925 0.375
 O4 O 0.07323499775 0.47620500075 0.375
 O4 O 0.19823499775 0.39879499925 0.375
 O4 O 0.05176500225 0.35120500075 0.375
 O4 O 0.05176500225 0.39879499925 0.375
 O4 O 0.19823499775 0.35120500075 0.375
 O5 O 0.0281475 0.25 0.3090699985
 O5 O 0.0281475 0.5 0.3090699985
 O5 O 0.2218525 0.25 0.4409300015
 O5 O 0.2218525 0.5 0.4409300015
 O5 O 0.2218525 0.25 0.3090699985
 O5 O 0.2218525 0.5 0.3090699985
 O5 O 0.0281475 0.25 0.4409300015
 O5 O 0.0281475 0.5 0.4409300015
 O5 O 0.1531475 0.375 0.3090699985
 O5 O 0.0968525 0.375 0.4409300015
 O5 O 0.0968525 0.375 0.3090699985
 O5 O 0.1531475 0.375 0.4409300015
 O6 O 0.0241599995 0.2736249995 0.375
 O6 O 0.2258400005 0.47637500050000003 0.375
 O6 O 0.2258400005 0.2736249995 0.375
 O6 O 0.0241599995 0.47637500050000003 0.375
 O6 O 0.1491599995 0.39862499949999997 0.375
 O6 O 0.1008400005 0.35137500050000003 0.375
 O6 O 0.1008400005 0.39862499949999997 0.375
 O6 O 0.1491599995 0.35137500050000003 0.375
 O7 O 0.0198449995 0.28517999875 0.29336500175
 O7 O 0.2301550005 0.46482000125 0.45663499825
 O7 O 0.2301550005 0.46482000125 0.29336500175
 O7 O 0.0198449995 0.28517999875 0.45663499825
 O7 O 0.2301550005 0.28517999875 0.45663499825
 O7 O 0.0198449995 0.46482000125 0.29336500175
 O7 O 0.0198449995 0.46482000125 0.45663499825
 O7 O 0.2301550005 0.28517999875 0.29336500175
 O7 O 0.1448449995 0.41017999875 0.29336500175
 O7 O 0.1051550005 0.33982000125 0.45663499825
 O7 O 0.1051550005 0.33982000125 0.29336500175
 O7 O 0.1448449995 0.41017999875 0.45663499825
 O7 O 0.1051550005 0.41017999875 0.45663499825
 O7 O 0.1448449995 0.33982000125 0.29336500175
 O7 O 0.1448449995 0.33982000125 0.45663499825
 O7 O 0.1051550005 0.41017999875 0.29336500175
 O8 O 0.0625 0.3125 0.25
 O8 O 0.0625 0.3125 0.5
 O8 O 0.1875 0.4375 0.25
 O8 O 0.1875 0.4375 0.5
 O8 O 0.1875 0.3125 0.25
 O8 O 0.1875 0.3125 0.5
 O8 O 0.0625 0.4375 0.25
 O8 O 0.0625 0.4375 0.5
 O9 O 0.03091249975 0.31469249725 0.25
 O9 O 0.03091249975 0.31469249725 0.5
 O9 O 0.21908750025 0.43530750274999996 0.25
 O9 O 0.21908750025 0.43530750274999996 0.5
 O9 O 0.21908750025 0.31469249725 0.25
 O9 O 0.21908750025 0.31469249725 0.5
 O9 O 0.03091249975 0.43530750274999996 0.25
 O9 O 0.03091249975 0.43530750274999996 0.5
 O9 O 0.15591249975 0.43969249725000004 0.25
 O9 O 0.15591249975 0.43969249725000004 0.5
 O9 O 0.09408750025 0.31030750275 0.25
 O9 O 0.09408750025 0.31030750275 0.5
 O9 O 0.09408750025 0.43969249725000004 0.25
 O9 O 0.09408750025 0.43969249725000004 0.5
 O9 O 0.15591249975 0.31030750275 0.25
 O9 O 0.15591249975 0.31030750275 0.5
 O10 O 0.0 0.30657500025 0.25
 O10 O 0.0 0.30657500025 0.5
 O10 O 0.25 0.30657500025 0.25
 O10 O 0.25 0.30657500025 0.5
 O10 O 0.0 0.44342499975 0.25
 O10 O 0.0 0.44342499975 0.5
 O10 O 0.25 0.44342499975 0.25
 O10 O 0.25 0.44342499975 0.5
 O10 O 0.125 0.43157500025 0.25
 O10 O 0.125 0.43157500025 0.5
 O10 O 0.125 0.31842499975 0.25
 O10 O 0.125 0.31842499975 0.5
 O2 O 0.0476175025 0.33963499975 0.20677249875
 O2 O 0.0476175025 0.33963499975 0.5432275012500001
 O2 O 0.2023824975 0.41036500025 0.20677249875
 O2 O 0.2023824975 0.41036500025 0.5432275012500001
 O2 O 0.2023824975 0.33963499975 0.20677249875
 O2 O 0.2023824975 0.33963499975 0.5432275012500001
 O2 O 0.0476175025 0.41036500025 0.20677249875
 O2 O 0.0476175025 0.41036500025 0.5432275012500001
 O2 O 0.1726175025 0.46463499975 0.20677249875
 O2 O 0.1726175025 0.46463499975 0.5432275012500001
 O2 O 0.0773824975 0.28536500025 0.20677249875
 O2 O 0.0773824975 0.28536500025 0.5432275012500001
 O2 O 0.0773824975 0.46463499975 0.20677249875
 O2 O 0.0773824975 0.46463499975 0.5432275012500001
 O2 O 0.1726175025 0.28536500025 0.20677249875
 O2 O 0.1726175025 0.28536500025 0.5432275012500001
 O7 O 0.0198449995 0.28517999875 0.20663499825
 O7 O 0.0198449995 0.28517999875 0.54336500175
 O7 O 0.2301550005 0.46482000125 0.20663499825
 O7 O 0.2301550005 0.46482000125 0.54336500175
 O7 O 0.2301550005 0.28517999875 0.20663499825
 O7 O 0.2301550005 0.28517999875 0.54336500175
 O7 O 0.0198449995 0.46482000125 0.20663499825
 O7 O 0.0198449995 0.46482000125 0.54336500175
 O7 O 0.1448449995 0.41017999875 0.20663499825
 O7 O 0.1448449995 0.41017999875 0.54336500175
 O7 O 0.1051550005 0.33982000125 0.20663499825
 O7 O 0.1051550005 0.33982000125 0.54336500175
 O7 O 0.1051550005 0.41017999875 0.20663499825
 O7 O 0.1051550005 0.41017999875 0.54336500175
 O7 O 0.1448449995 0.33982000125 0.20663499825
 O7 O 0.1448449995 0.33982000125 0.54336500175
 Si1 Si 0.3172350005 0.27160999925 0.32483500249999997
 Si1 Si 0.4327649995 0.47839000075 0.42516499750000003
 Si1 Si 0.4327649995 0.47839000075 0.32483500249999997
 Si1 Si 0.3172350005 0.27160999925 0.42516499750000003
 Si1 Si 0.4327649995 0.27160999925 0.42516499750000003
 Si1 Si 0.3172350005 0.47839000075 0.32483500249999997
 Si1 Si 0.3172350005 0.47839000075 0.42516499750000003
 Si1 Si 0.4327649995 0.27160999925 0.32483500249999997
 Si1 Si 0.4422350005 0.39660999925 0.32483500249999997
 Si1 Si 0.3077649995 0.35339000075 0.42516499750000003
 Si1 Si 0.3077649995 0.35339000075 0.32483500249999997
 Si1 Si 0.4422350005 0.39660999925 0.42516499750000003
 Si1 Si 0.3077649995 0.39660999925 0.42516499750000003
 Si1 Si 0.4422350005 0.35339000075 0.32483500249999997
 Si1 Si 0.4422350005 0.35339000075 0.42516499750000003
 Si1 Si 0.3077649995 0.39660999925 0.32483500249999997
 Si2 Si 0.28017999975 0.27157500025 0.324832499
 Si2 Si 0.46982000025000004 0.47842499974999997 0.425167501
 Si2 Si 0.46982000025000004 0.47842499974999997 0.324832499
 Si2 Si 0.28017999975 0.27157500025 0.425167501
 Si2 Si 0.46982000025000004 0.27157500025 0.425167501
 Si2 Si 0.28017999975 0.47842499974999997 0.324832499
 Si2 Si 0.28017999975 0.47842499974999997 0.425167501
 Si2 Si 0.46982000025000004 0.27157500025 0.324832499
 Si2 Si 0.40517999974999996 0.39657500025000003 0.324832499
 Si2 Si 0.34482000025 0.35342499974999997 0.425167501
 Si2 Si 0.34482000025 0.35342499974999997 0.324832499
 Si2 Si 0.40517999974999996 0.39657500025000003 0.425167501
 Si2 Si 0.34482000025 0.39657500025000003 0.425167501
 Si2 Si 0.40517999974999996 0.35342499974999997 0.324832499
 Si2 Si 0.40517999974999996 0.35342499974999997 0.425167501
 Si2 Si 0.34482000025 0.39657500025000003 0.324832499
 Si3 Si 0.297362499 0.32644499849999997 0.25
 Si3 Si 0.297362499 0.32644499849999997 0.5
 Si3 Si 0.452637501 0.42355500150000003 0.25
 Si3 Si 0.452637501 0.42355500150000003 0.5
 Si3 Si 0.452637501 0.32644499849999997 0.25
 Si3 Si 0.452637501 0.32644499849999997 0.5
 Si3 Si 0.297362499 0.42355500150000003 0.25
 Si3 Si 0.297362499 0.42355500150000003 0.5
 Si3 Si 0.422362499 0.45144499849999997 0.25
 Si3 Si 0.422362499 0.45144499849999997 0.5
 Si3 Si 0.327637501 0.29855500150000003 0.25
 Si3 Si 0.327637501 0.29855500150000003 0.5
 Si3 Si 0.327637501 0.45144499849999997 0.25
 Si3 Si 0.327637501 0.45144499849999997 0.5
 Si3 Si 0.422362499 0.29855500150000003 0.25
 Si3 Si 0.422362499 0.29855500150000003 0.5
 Si4 Si 0.26785499975 0.29804499824999997 0.25
 Si4 Si 0.26785499975 0.29804499824999997 0.5
 Si4 Si 0.48214500025 0.45195500175000003 0.25
 Si4 Si 0.48214500025 0.45195500175000003 0.5
 Si4 Si 0.48214500025 0.29804499824999997 0.25
 Si4 Si 0.48214500025 0.29804499824999997 0.5
 Si4 Si 0.26785499975 0.45195500175000003 0.25
 Si4 Si 0.26785499975 0.45195500175000003 0.5
 Si4 Si 0.39285499975 0.42304499824999997 0.25
 Si4 Si 0.39285499975 0.42304499824999997 0.5
 Si4 Si 0.35714500025 0.32695500175000003 0.25
 Si4 Si 0.35714500025 0.32695500175000003 0.5
 Si4 Si 0.35714500025 0.42304499824999997 0.25
 Si4 Si 0.35714500025 0.42304499824999997 0.5
 Si4 Si 0.39285499975 0.32695500175000003 0.25
 Si4 Si 0.39285499975 0.32695500175000003 0.5
 O1 O 0.29870250075 0.27753500075 0.32191000125
 O1 O 0.45129749925 0.47246499924999996 0.42808999875
 O1 O 0.45129749925 0.47246499924999996 0.32191000125
 O1 O 0.29870250075 0.27753500075 0.42808999875
 O1 O 0.45129749925 0.27753500075 0.42808999875
 O1 O 0.29870250075 0.47246499924999996 0.32191000125
 O1 O 0.29870250075 0.47246499924999996 0.42808999875
 O1 O 0.45129749925 0.27753500075 0.32191000125
 O1 O 0.42370250075 0.40253500075000004 0.32191000125
 O1 O 0.32629749925 0.34746499925 0.42808999875
 O1 O 0.32629749925 0.34746499925 0.32191000125
 O1 O 0.42370250075 0.40253500075000004 0.42808999875
 O1 O 0.32629749925 0.40253500075000004 0.42808999875
 O1 O 0.42370250075 0.34746499925 0.32191000125
 O1 O 0.42370250075 0.34746499925 0.42808999875
 O1 O 0.32629749925 0.40253500075000004 0.32191000125
 O2 O 0.3273824975 0.28536500025 0.29322750125
 O2 O 0.42261750249999996 0.46463499975 0.45677249875000003
 O2 O 0.42261750249999996 0.46463499975 0.29322750125
 O2 O 0.3273824975 0.28536500025 0.45677249875000003
 O2 O 0.42261750249999996 0.28536500025 0.45677249875000003
 O2 O 0.3273824975 0.46463499975 0.29322750125
 O2 O 0.3273824975 0.46463499975 0.45677249875000003
 O2 O 0.42261750249999996 0.28536500025 0.29322750125
 O2 O 0.45238249750000004 0.41036500025 0.29322750125
 O2 O 0.2976175025 0.33963499975 0.45677249875000003
 O2 O 0.2976175025 0.33963499975 0.29322750125
 O2 O 0.45238249750000004 0.41036500025 0.45677249875000003
 O2 O 0.2976175025 0.41036500025 0.45677249875000003
 O2 O 0.45238249750000004 0.33963499975 0.29322750125
 O2 O 0.45238249750000004 0.33963499975 0.45677249875000003
 O2 O 0.2976175025 0.41036500025 0.29322750125
 O3 O 0.31933250275 0.25 0.30936750025
 O3 O 0.31933250275 0.5 0.30936750025
 O3 O 0.43066749725 0.25 0.44063249974999996
 O3 O 0.43066749725 0.5 0.44063249974999996
 O3 O 0.43066749725 0.25 0.30936750025
 O3 O 0.43066749725 0.5 0.30936750025
 O3 O 0.31933250275 0.25 0.44063249974999996
 O3 O 0.31933250275 0.5 0.44063249974999996
 O3 O 0.44433250275 0.375 0.30936750025
 O3 O 0.30566749725 0.375 0.44063249974999996
 O3 O 0.30566749725 0.375 0.30936750025
 O3 O 0.44433250275 0.375 0.44063249974999996
 O4 O 0.32323499775 0.27379499925 0.375
 O4 O 0.42676500225 0.47620500075 0.375
 O4 O 0.42676500225 0.27379499925 0.375
 O4 O 0.32323499775 0.47620500075 0.375
 O4 O 0.44823499775 0.39879499925 0.375
 O4 O 0.30176500225 0.35120500075 0.375
 O4 O 0.30176500225 0.39879499925 0.375
 O4 O 0.44823499775 0.35120500075 0.375
 O5 O 0.2781475 0.25 0.3090699985
 O5 O 0.2781475 0.5 0.3090699985
 O5 O 0.4718525 0.25 0.4409300015
 O5 O 0.4718525 0.5 0.4409300015
 O5 O 0.4718525 0.25 0.3090699985
 O5 O 0.4718525 0.5 0.3090699985
 O5 O 0.2781475 0.25 0.4409300015
 O5 O 0.2781475 0.5 0.4409300015
 O5 O 0.4031475 0.375 0.3090699985
 O5 O 0.3468525 0.375 0.4409300015
 O5 O 0.3468525 0.375 0.3090699985
 O5 O 0.4031475 0.375 0.4409300015
 O6 O 0.27415999950000003 0.2736249995 0.375
 O6 O 0.47584000049999997 0.47637500050000003 0.375
 O6 O 0.47584000049999997 0.2736249995 0.375
 O6 O 0.27415999950000003 0.47637500050000003 0.375
 O6 O 0.39915999950000003 0.39862499949999997 0.375
 O6 O 0.35084000049999997 0.35137500050000003 0.375
 O6 O 0.35084000049999997 0.39862499949999997 0.375
 O6 O 0.39915999950000003 0.35137500050000003 0.375
 O7 O 0.2698449995 0.28517999875 0.29336500175
 O7 O 0.48015500050000004 0.46482000125 0.45663499825
 O7 O 0.48015500050000004 0.46482000125 0.29336500175
 O7 O 0.2698449995 0.28517999875 0.45663499825
 O7 O 0.48015500050000004 0.28517999875 0.45663499825
 O7 O 0.2698449995 0.46482000125 0.29336500175
 O7 O 0.2698449995 0.46482000125 0.45663499825
 O7 O 0.48015500050000004 0.28517999875 0.29336500175
 O7 O 0.39484499949999996 0.41017999875 0.29336500175
 O7 O 0.3551550005 0.33982000125 0.45663499825
 O7 O 0.3551550005 0.33982000125 0.29336500175
 O7 O 0.39484499949999996 0.41017999875 0.45663499825
 O7 O 0.3551550005 0.41017999875 0.45663499825
 O7 O 0.39484499949999996 0.33982000125 0.29336500175
 O7 O 0.39484499949999996 0.33982000125 0.45663499825
 O7 O 0.3551550005 0.41017999875 0.29336500175
 O8 O 0.3125 0.3125 0.25
 O8 O 0.3125 0.3125 0.5
 O8 O 0.4375 0.4375 0.25
 O8 O 0.4375 0.4375 0.5
 O8 O 0.4375 0.3125 0.25
 O8 O 0.4375 0.3125 0.5
 O8 O 0.3125 0.4375 0.25
 O8 O 0.3125 0.4375 0.5
 O9 O 0.28091249975 0.31469249725 0.25
 O9 O 0.28091249975 0.31469249725 0.5
 O9 O 0.46908750025 0.43530750274999996 0.25
 O9 O 0.46908750025 0.43530750274999996 0.5
 O9 O 0.46908750025 0.31469249725 0.25
 O9 O 0.46908750025 0.31469249725 0.5
 O9 O 0.28091249975 0.43530750274999996 0.25
 O9 O 0.28091249975 0.43530750274999996 0.5
 O9 O 0.40591249975 0.43969249725000004 0.25
 O9 O 0.40591249975 0.43969249725000004 0.5
 O9 O 0.34408750025 0.31030750275 0.25
 O9 O 0.34408750025 0.31030750275 0.5
 O9 O 0.34408750025 0.43969249725000004 0.25
 O9 O 0.34408750025 0.43969249725000004 0.5
 O9 O 0.40591249975 0.31030750275 0.25
 O9 O 0.40591249975 0.31030750275 0.5
 O10 O 0.25 0.30657500025 0.25
 O10 O 0.25 0.30657500025 0.5
 O10 O 0.5 0.30657500025 0.25
 O10 O 0.5 0.30657500025 0.5
 O10 O 0.25 0.44342499975 0.25
 O10 O 0.25 0.44342499975 0.5
 O10 O 0.5 0.44342499975 0.25
 O10 O 0.5 0.44342499975 0.5
 O10 O 0.375 0.43157500025 0.25
 O10 O 0.375 0.43157500025 0.5
 O10 O 0.375 0.31842499975 0.25
 O10 O 0.375 0.31842499975 0.5
 O2 O 0.2976175025 0.33963499975 0.20677249875
 O2 O 0.2976175025 0.33963499975 0.5432275012500001
 O2 O 0.45238249750000004 0.41036500025 0.20677249875
 O2 O 0.45238249750000004 0.41036500025 0.5432275012500001
 O2 O 0.45238249750000004 0.33963499975 0.20677249875
 O2 O 0.45238249750000004 0.33963499975 0.5432275012500001
 O2 O 0.2976175025 0.41036500025 0.20677249875
 O2 O 0.2976175025 0.41036500025 0.5432275012500001
 O2 O 0.42261750249999996 0.46463499975 0.20677249875
 O2 O 0.42261750249999996 0.46463499975 0.5432275012500001
 O2 O 0.3273824975 0.28536500025 0.20677249875
 O2 O 0.3273824975 0.28536500025 0.5432275012500001
 O2 O 0.3273824975 0.46463499975 0.20677249875
 O2 O 0.3273824975 0.46463499975 0.5432275012500001
 O2 O 0.42261750249999996 0.28536500025 0.20677249875
 O2 O 0.42261750249999996 0.28536500025 0.5432275012500001
 O7 O 0.2698449995 0.28517999875 0.20663499825
 O7 O 0.2698449995 0.28517999875 0.54336500175
 O7 O 0.48015500050000004 0.46482000125 0.20663499825
 O7 O 0.48015500050000004 0.46482000125 0.54336500175
 O7 O 0.48015500050000004 0.28517999875 0.20663499825
 O7 O 0.48015500050000004 0.28517999875 0.54336500175
 O7 O 0.2698449995 0.46482000125 0.20663499825
 O7 O 0.2698449995 0.46482000125 0.54336500175
 O7 O 0.39484499949999996 0.41017999875 0.20663499825
 O7 O 0.39484499949999996 0.41017999875 0.54336500175
 O7 O 0.3551550005 0.33982000125 0.20663499825
 O7 O 0.3551550005 0.33982000125 0.54336500175
 O7 O 0.3551550005 0.41017999875 0.20663499825
 O7 O 0.3551550005 0.41017999875 0.54336500175
 O7 O 0.39484499949999996 0.33982000125 0.20663499825
 O7 O 0.39484499949999996 0.33982000125 0.54336500175
 Si1 Si 0.5672350005 0.27160999925 0.32483500249999997
 Si1 Si 0.6827649995 0.47839000075 0.42516499750000003
 Si1 Si 0.6827649995 0.47839000075 0.32483500249999997
 Si1 Si 0.5672350005 0.27160999925 0.42516499750000003
 Si1 Si 0.6827649995 0.27160999925 0.42516499750000003
 Si1 Si 0.5672350005 0.47839000075 0.32483500249999997
 Si1 Si 0.5672350005 0.47839000075 0.42516499750000003
 Si1 Si 0.6827649995 0.27160999925 0.32483500249999997
 Si1 Si 0.6922350005 0.39660999925 0.32483500249999997
 Si1 Si 0.5577649995 0.35339000075 0.42516499750000003
 Si1 Si 0.5577649995 0.35339000075 0.32483500249999997
 Si1 Si 0.6922350005 0.39660999925 0.42516499750000003
 Si1 Si 0.5577649995 0.39660999925 0.42516499750000003
 Si1 Si 0.6922350005 0.35339000075 0.32483500249999997
 Si1 Si 0.6922350005 0.35339000075 0.42516499750000003
 Si1 Si 0.5577649995 0.39660999925 0.32483500249999997
 Si2 Si 0.5301799997500001 0.27157500025 0.324832499
 Si2 Si 0.71982000025 0.47842499974999997 0.425167501
 Si2 Si 0.71982000025 0.47842499974999997 0.324832499
 Si2 Si 0.5301799997500001 0.27157500025 0.425167501
 Si2 Si 0.71982000025 0.27157500025 0.425167501
 Si2 Si 0.5301799997500001 0.47842499974999997 0.324832499
 Si2 Si 0.5301799997500001 0.47842499974999997 0.425167501
 Si2 Si 0.71982000025 0.27157500025 0.324832499
 Si2 Si 0.65517999975 0.39657500025000003 0.324832499
 Si2 Si 0.5948200002499999 0.35342499974999997 0.425167501
 Si2 Si 0.5948200002499999 0.35342499974999997 0.324832499
 Si2 Si 0.65517999975 0.39657500025000003 0.425167501
 Si2 Si 0.5948200002499999 0.39657500025000003 0.425167501
 Si2 Si 0.65517999975 0.35342499974999997 0.324832499
 Si2 Si 0.65517999975 0.35342499974999997 0.425167501
 Si2 Si 0.5948200002499999 0.39657500025000003 0.324832499
 Si3 Si 0.547362499 0.32644499849999997 0.25
 Si3 Si 0.547362499 0.32644499849999997 0.5
 Si3 Si 0.702637501 0.42355500150000003 0.25
 Si3 Si 0.702637501 0.42355500150000003 0.5
 Si3 Si 0.702637501 0.32644499849999997 0.25
 Si3 Si 0.702637501 0.32644499849999997 0.5
 Si3 Si 0.547362499 0.42355500150000003 0.25
 Si3 Si 0.547362499 0.42355500150000003 0.5
 Si3 Si 0.672362499 0.45144499849999997 0.25
 Si3 Si 0.672362499 0.45144499849999997 0.5
 Si3 Si 0.577637501 0.29855500150000003 0.25
 Si3 Si 0.577637501 0.29855500150000003 0.5
 Si3 Si 0.577637501 0.45144499849999997 0.25
 Si3 Si 0.577637501 0.45144499849999997 0.5
 Si3 Si 0.672362499 0.29855500150000003 0.25
 Si3 Si 0.672362499 0.29855500150000003 0.5
 Si4 Si 0.5178549997499999 0.29804499824999997 0.25
 Si4 Si 0.5178549997499999 0.29804499824999997 0.5
 Si4 Si 0.7321450002500001 0.45195500175000003 0.25
 Si4 Si 0.7321450002500001 0.45195500175000003 0.5
 Si4 Si 0.7321450002500001 0.29804499824999997 0.25
 Si4 Si 0.7321450002500001 0.29804499824999997 0.5
 Si4 Si 0.5178549997499999 0.45195500175000003 0.25
 Si4 Si 0.5178549997499999 0.45195500175000003 0.5
 Si4 Si 0.6428549997499999 0.42304499824999997 0.25
 Si4 Si 0.6428549997499999 0.42304499824999997 0.5
 Si4 Si 0.6071450002500001 0.32695500175000003 0.25
 Si4 Si 0.6071450002500001 0.32695500175000003 0.5
 Si4 Si 0.6071450002500001 0.42304499824999997 0.25
 Si4 Si 0.6071450002500001 0.42304499824999997 0.5
 Si4 Si 0.6428549997499999 0.32695500175000003 0.25
 Si4 Si 0.6428549997499999 0.32695500175000003 0.5
 O1 O 0.5487025007499999 0.27753500075 0.32191000125
 O1 O 0.7012974992500001 0.47246499924999996 0.42808999875
 O1 O 0.7012974992500001 0.47246499924999996 0.32191000125
 O1 O 0.5487025007499999 0.27753500075 0.42808999875
 O1 O 0.7012974992500001 0.27753500075 0.42808999875
 O1 O 0.5487025007499999 0.47246499924999996 0.32191000125
 O1 O 0.5487025007499999 0.47246499924999996 0.42808999875
 O1 O 0.7012974992500001 0.27753500075 0.32191000125
 O1 O 0.6737025007499999 0.40253500075000004 0.32191000125
 O1 O 0.5762974992500001 0.34746499925 0.42808999875
 O1 O 0.5762974992500001 0.34746499925 0.32191000125
 O1 O 0.6737025007499999 0.40253500075000004 0.42808999875
 O1 O 0.5762974992500001 0.40253500075000004 0.42808999875
 O1 O 0.6737025007499999 0.34746499925 0.32191000125
 O1 O 0.6737025007499999 0.34746499925 0.42808999875
 O1 O 0.5762974992500001 0.40253500075000004 0.32191000125
 O2 O 0.5773824974999999 0.28536500025 0.29322750125
 O2 O 0.6726175025 0.46463499975 0.45677249875000003
 O2 O 0.6726175025 0.46463499975 0.29322750125
 O2 O 0.5773824974999999 0.28536500025 0.45677249875000003
 O2 O 0.6726175025 0.28536500025 0.45677249875000003
 O2 O 0.5773824974999999 0.46463499975 0.29322750125
 O2 O 0.5773824974999999 0.46463499975 0.45677249875000003
 O2 O 0.6726175025 0.28536500025 0.29322750125
 O2 O 0.7023824975 0.41036500025 0.29322750125
 O2 O 0.5476175025000001 0.33963499975 0.45677249875000003
 O2 O 0.5476175025000001 0.33963499975 0.29322750125
 O2 O 0.7023824975 0.41036500025 0.45677249875000003
 O2 O 0.5476175025000001 0.41036500025 0.45677249875000003
 O2 O 0.7023824975 0.33963499975 0.29322750125
 O2 O 0.7023824975 0.33963499975 0.45677249875000003
 O2 O 0.5476175025000001 0.41036500025 0.29322750125
 O3 O 0.56933250275 0.25 0.30936750025
 O3 O 0.56933250275 0.5 0.30936750025
 O3 O 0.68066749725 0.25 0.44063249974999996
 O3 O 0.68066749725 0.5 0.44063249974999996
 O3 O 0.68066749725 0.25 0.30936750025
 O3 O 0.68066749725 0.5 0.30936750025
 O3 O 0.56933250275 0.25 0.44063249974999996
 O3 O 0.56933250275 0.5 0.44063249974999996
 O3 O 0.69433250275 0.375 0.30936750025
 O3 O 0.55566749725 0.375 0.44063249974999996
 O3 O 0.55566749725 0.375 0.30936750025
 O3 O 0.69433250275 0.375 0.44063249974999996
 O4 O 0.57323499775 0.27379499925 0.375
 O4 O 0.67676500225 0.47620500075 0.375
 O4 O 0.67676500225 0.27379499925 0.375
 O4 O 0.57323499775 0.47620500075 0.375
 O4 O 0.69823499775 0.39879499925 0.375
 O4 O 0.55176500225 0.35120500075 0.375
 O4 O 0.55176500225 0.39879499925 0.375
 O4 O 0.69823499775 0.35120500075 0.375
 O5 O 0.5281475 0.25 0.3090699985
 O5 O 0.5281475 0.5 0.3090699985
 O5 O 0.7218525 0.25 0.4409300015
 O5 O 0.7218525 0.5 0.4409300015
 O5 O 0.7218525 0.25 0.3090699985
 O5 O 0.7218525 0.5 0.3090699985
 O5 O 0.5281475 0.25 0.4409300015
 O5 O 0.5281475 0.5 0.4409300015
 O5 O 0.6531475 0.375 0.3090699985
 O5 O 0.5968525 0.375 0.4409300015
 O5 O 0.5968525 0.375 0.3090699985
 O5 O 0.6531475 0.375 0.4409300015
 O6 O 0.5241599995 0.2736249995 0.375
 O6 O 0.7258400005 0.47637500050000003 0.375
 O6 O 0.7258400005 0.2736249995 0.375
 O6 O 0.5241599995 0.47637500050000003 0.375
 O6 O 0.6491599995 0.39862499949999997 0.375
 O6 O 0.6008400005 0.35137500050000003 0.375
 O6 O 0.6008400005 0.39862499949999997 0.375
 O6 O 0.6491599995 0.35137500050000003 0.375
 O7 O 0.5198449995000001 0.28517999875 0.29336500175
 O7 O 0.7301550005 0.46482000125 0.45663499825
 O7 O 0.7301550005 0.46482000125 0.29336500175
 O7 O 0.5198449995000001 0.28517999875 0.45663499825
 O7 O 0.7301550005 0.28517999875 0.45663499825
 O7 O 0.5198449995000001 0.46482000125 0.29336500175
 O7 O 0.5198449995000001 0.46482000125 0.45663499825
 O7 O 0.7301550005 0.28517999875 0.29336500175
 O7 O 0.6448449995 0.41017999875 0.29336500175
 O7 O 0.6051550004999999 0.33982000125 0.45663499825
 O7 O 0.6051550004999999 0.33982000125 0.29336500175
 O7 O 0.6448449995 0.41017999875 0.45663499825
 O7 O 0.6051550004999999 0.41017999875 0.45663499825
 O7 O 0.6448449995 0.33982000125 0.29336500175
 O7 O 0.6448449995 0.33982000125 0.45663499825
 O7 O 0.6051550004999999 0.41017999875 0.29336500175
 O8 O 0.5625 0.3125 0.25
 O8 O 0.5625 0.3125 0.5
 O8 O 0.6875 0.4375 0.25
 O8 O 0.6875 0.4375 0.5
 O8 O 0.6875 0.3125 0.25
 O8 O 0.6875 0.3125 0.5
 O8 O 0.5625 0.4375 0.25
 O8 O 0.5625 0.4375 0.5
 O9 O 0.53091249975 0.31469249725 0.25
 O9 O 0.53091249975 0.31469249725 0.5
 O9 O 0.71908750025 0.43530750274999996 0.25
 O9 O 0.71908750025 0.43530750274999996 0.5
 O9 O 0.71908750025 0.31469249725 0.25
 O9 O 0.71908750025 0.31469249725 0.5
 O9 O 0.53091249975 0.43530750274999996 0.25
 O9 O 0.53091249975 0.43530750274999996 0.5
 O9 O 0.65591249975 0.43969249725000004 0.25
 O9 O 0.65591249975 0.43969249725000004 0.5
 O9 O 0.59408750025 0.31030750275 0.25
 O9 O 0.59408750025 0.31030750275 0.5
 O9 O 0.59408750025 0.43969249725000004 0.25
 O9 O 0.59408750025 0.43969249725000004 0.5
 O9 O 0.65591249975 0.31030750275 0.25
 O9 O 0.65591249975 0.31030750275 0.5
 O10 O 0.5 0.30657500025 0.25
 O10 O 0.5 0.30657500025 0.5
 O10 O 0.75 0.30657500025 0.25
 O10 O 0.75 0.30657500025 0.5
 O10 O 0.5 0.44342499975 0.25
 O10 O 0.5 0.44342499975 0.5
 O10 O 0.75 0.44342499975 0.25
 O10 O 0.75 0.44342499975 0.5
 O10 O 0.625 0.43157500025 0.25
 O10 O 0.625 0.43157500025 0.5
 O10 O 0.625 0.31842499975 0.25
 O10 O 0.625 0.31842499975 0.5
 O2 O 0.5476175025000001 0.33963499975 0.20677249875
 O2 O 0.5476175025000001 0.33963499975 0.5432275012500001
 O2 O 0.7023824975 0.41036500025 0.20677249875
 O2 O 0.7023824975 0.41036500025 0.5432275012500001
 O2 O 0.7023824975 0.33963499975 0.20677249875
 O2 O 0.7023824975 0.33963499975 0.5432275012500001
 O2 O 0.5476175025000001 0.41036500025 0.20677249875
 O2 O 0.5476175025000001 0.41036500025 0.5432275012500001
 O2 O 0.6726175025 0.46463499975 0.20677249875
 O2 O 0.6726175025 0.46463499975 0.5432275012500001
 O2 O 0.5773824974999999 0.28536500025 0.20677249875
 O2 O 0.5773824974999999 0.28536500025 0.5432275012500001
 O2 O 0.5773824974999999 0.46463499975 0.20677249875
 O2 O 0.5773824974999999 0.46463499975 0.5432275012500001
 O2 O 0.6726175025 0.28536500025 0.20677249875
 O2 O 0.6726175025 0.28536500025 0.5432275012500001
 O7 O 0.5198449995000001 0.28517999875 0.20663499825
 O7 O 0.5198449995000001 0.28517999875 0.54336500175
 O7 O 0.7301550005 0.46482000125 0.20663499825
 O7 O 0.7301550005 0.46482000125 0.54336500175
 O7 O 0.7301550005 0.28517999875 0.20663499825
 O7 O 0.7301550005 0.28517999875 0.54336500175
 O7 O 0.5198449995000001 0.46482000125 0.20663499825
 O7 O 0.5198449995000001 0.46482000125 0.54336500175
 O7 O 0.6448449995 0.41017999875 0.20663499825
 O7 O 0.6448449995 0.41017999875 0.54336500175
 O7 O 0.6051550004999999 0.33982000125 0.20663499825
 O7 O 0.6051550004999999 0.33982000125 0.54336500175
 O7 O 0.6051550004999999 0.41017999875 0.20663499825
 O7 O 0.6051550004999999 0.41017999875 0.54336500175
 O7 O 0.6448449995 0.33982000125 0.20663499825
 O7 O 0.6448449995 0.33982000125 0.54336500175
 Si1 Si 0.8172350005 0.27160999925 0.32483500249999997
 Si1 Si 0.9327649995 0.47839000075 0.42516499750000003
 Si1 Si 0.9327649995 0.47839000075 0.32483500249999997
 Si1 Si 0.8172350005 0.27160999925 0.42516499750000003
 Si1 Si 0.9327649995 0.27160999925 0.42516499750000003
 Si1 Si 0.8172350005 0.47839000075 0.32483500249999997
 Si1 Si 0.8172350005 0.47839000075 0.42516499750000003
 Si1 Si 0.9327649995 0.27160999925 0.32483500249999997
 Si1 Si 0.9422350005 0.39660999925 0.32483500249999997
 Si1 Si 0.8077649995 0.35339000075 0.42516499750000003
 Si1 Si 0.8077649995 0.35339000075 0.32483500249999997
 Si1 Si 0.9422350005 0.39660999925 0.42516499750000003
 Si1 Si 0.8077649995 0.39660999925 0.42516499750000003
 Si1 Si 0.9422350005 0.35339000075 0.32483500249999997
 Si1 Si 0.9422350005 0.35339000075 0.42516499750000003
 Si1 Si 0.8077649995 0.39660999925 0.32483500249999997
 Si2 Si 0.7801799997500001 0.27157500025 0.324832499
 Si2 Si 0.96982000025 0.47842499974999997 0.425167501
 Si2 Si 0.96982000025 0.47842499974999997 0.324832499
 Si2 Si 0.7801799997500001 0.27157500025 0.425167501
 Si2 Si 0.96982000025 0.27157500025 0.425167501
 Si2 Si 0.7801799997500001 0.47842499974999997 0.324832499
 Si2 Si 0.7801799997500001 0.47842499974999997 0.425167501
 Si2 Si 0.96982000025 0.27157500025 0.324832499
 Si2 Si 0.90517999975 0.39657500025000003 0.324832499
 Si2 Si 0.8448200002499999 0.35342499974999997 0.425167501
 Si2 Si 0.8448200002499999 0.35342499974999997 0.324832499
 Si2 Si 0.90517999975 0.39657500025000003 0.425167501
 Si2 Si 0.8448200002499999 0.39657500025000003 0.425167501
 Si2 Si 0.90517999975 0.35342499974999997 0.324832499
 Si2 Si 0.90517999975 0.35342499974999997 0.425167501
 Si2 Si 0.8448200002499999 0.39657500025000003 0.324832499
 Si3 Si 0.797362499 0.32644499849999997 0.25
 Si3 Si 0.797362499 0.32644499849999997 0.5
 Si3 Si 0.952637501 0.42355500150000003 0.25
 Si3 Si 0.952637501 0.42355500150000003 0.5
 Si3 Si 0.952637501 0.32644499849999997 0.25
 Si3 Si 0.952637501 0.32644499849999997 0.5
 Si3 Si 0.797362499 0.42355500150000003 0.25
 Si3 Si 0.797362499 0.42355500150000003 0.5
 Si3 Si 0.922362499 0.45144499849999997 0.25
 Si3 Si 0.922362499 0.45144499849999997 0.5
 Si3 Si 0.827637501 0.29855500150000003 0.25
 Si3 Si 0.827637501 0.29855500150000003 0.5
 Si3 Si 0.827637501 0.45144499849999997 0.25
 Si3 Si 0.827637501 0.45144499849999997 0.5
 Si3 Si 0.922362499 0.29855500150000003 0.25
 Si3 Si 0.922362499 0.29855500150000003 0.5
 Si4 Si 0.7678549997499999 0.29804499824999997 0.25
 Si4 Si 0.7678549997499999 0.29804499824999997 0.5
 Si4 Si 0.9821450002500001 0.45195500175000003 0.25
 Si4 Si 0.9821450002500001 0.45195500175000003 0.5
 Si4 Si 0.9821450002500001 0.29804499824999997 0.25
 Si4 Si 0.9821450002500001 0.29804499824999997 0.5
 Si4 Si 0.7678549997499999 0.45195500175000003 0.25
 Si4 Si 0.7678549997499999 0.45195500175000003 0.5
 Si4 Si 0.8928549997499999 0.42304499824999997 0.25
 Si4 Si 0.8928549997499999 0.42304499824999997 0.5
 Si4 Si 0.8571450002500001 0.32695500175000003 0.25
 Si4 Si 0.8571450002500001 0.32695500175000003 0.5
 Si4 Si 0.8571450002500001 0.42304499824999997 0.25
 Si4 Si 0.8571450002500001 0.42304499824999997 0.5
 Si4 Si 0.8928549997499999 0.32695500175000003 0.25
 Si4 Si 0.8928549997499999 0.32695500175000003 0.5
 O1 O 0.7987025007499999 0.27753500075 0.32191000125
 O1 O 0.9512974992500001 0.47246499924999996 0.42808999875
 O1 O 0.9512974992500001 0.47246499924999996 0.32191000125
 O1 O 0.7987025007499999 0.27753500075 0.42808999875
 O1 O 0.9512974992500001 0.27753500075 0.42808999875
 O1 O 0.7987025007499999 0.47246499924999996 0.32191000125
 O1 O 0.7987025007499999 0.47246499924999996 0.42808999875
 O1 O 0.9512974992500001 0.27753500075 0.32191000125
 O1 O 0.9237025007499999 0.40253500075000004 0.32191000125
 O1 O 0.8262974992500001 0.34746499925 0.42808999875
 O1 O 0.8262974992500001 0.34746499925 0.32191000125
 O1 O 0.9237025007499999 0.40253500075000004 0.42808999875
 O1 O 0.8262974992500001 0.40253500075000004 0.42808999875
 O1 O 0.9237025007499999 0.34746499925 0.32191000125
 O1 O 0.9237025007499999 0.34746499925 0.42808999875
 O1 O 0.8262974992500001 0.40253500075000004 0.32191000125
 O2 O 0.8273824974999999 0.28536500025 0.29322750125
 O2 O 0.9226175025 0.46463499975 0.45677249875000003
 O2 O 0.9226175025 0.46463499975 0.29322750125
 O2 O 0.8273824974999999 0.28536500025 0.45677249875000003
 O2 O 0.9226175025 0.28536500025 0.45677249875000003
 O2 O 0.8273824974999999 0.46463499975 0.29322750125
 O2 O 0.8273824974999999 0.46463499975 0.45677249875000003
 O2 O 0.9226175025 0.28536500025 0.29322750125
 O2 O 0.9523824975 0.41036500025 0.29322750125
 O2 O 0.7976175025000001 0.33963499975 0.45677249875000003
 O2 O 0.7976175025000001 0.33963499975 0.29322750125
 O2 O 0.9523824975 0.41036500025 0.45677249875000003
 O2 O 0.7976175025000001 0.41036500025 0.45677249875000003
 O2 O 0.9523824975 0.33963499975 0.29322750125
 O2 O 0.9523824975 0.33963499975 0.45677249875000003
 O2 O 0.7976175025000001 0.41036500025 0.29322750125
 O3 O 0.81933250275 0.25 0.30936750025
 O3 O 0.81933250275 0.5 0.30936750025
 O3 O 0.93066749725 0.25 0.44063249974999996
 O3 O 0.93066749725 0.5 0.44063249974999996
 O3 O 0.93066749725 0.25 0.30936750025
 O3 O 0.93066749725 0.5 0.30936750025
 O3 O 0.81933250275 0.25 0.44063249974999996
 O3 O 0.81933250275 0.5 0.44063249974999996
 O3 O 0.94433250275 0.375 0.30936750025
 O3 O 0.80566749725 0.375 0.44063249974999996
 O3 O 0.80566749725 0.375 0.30936750025
 O3 O 0.94433250275 0.375 0.44063249974999996
 O4 O 0.82323499775 0.27379499925 0.375
 O4 O 0.92676500225 0.47620500075 0.375
 O4 O 0.92676500225 0.27379499925 0.375
 O4 O 0.82323499775 0.47620500075 0.375
 O4 O 0.94823499775 0.39879499925 0.375
 O4 O 0.80176500225 0.35120500075 0.375
 O4 O 0.80176500225 0.39879499925 0.375
 O4 O 0.94823499775 0.35120500075 0.375
 O5 O 0.7781475 0.25 0.3090699985
 O5 O 0.7781475 0.5 0.3090699985
 O5 O 0.9718525 0.25 0.4409300015
 O5 O 0.9718525 0.5 0.4409300015
 O5 O 0.9718525 0.25 0.3090699985
 O5 O 0.9718525 0.5 0.3090699985
 O5 O 0.7781475 0.25 0.4409300015
 O5 O 0.7781475 0.5 0.4409300015
 O5 O 0.9031475 0.375 0.3090699985
 O5 O 0.8468525 0.375 0.4409300015
 O5 O 0.8468525 0.375 0.3090699985
 O5 O 0.9031475 0.375 0.4409300015
 O6 O 0.7741599995 0.2736249995 0.375
 O6 O 0.9758400005 0.47637500050000003 0.375
 O6 O 0.9758400005 0.2736249995 0.375
 O6 O 0.7741599995 0.47637500050000003 0.375
 O6 O 0.8991599995 0.39862499949999997 0.375
 O6 O 0.8508400005 0.35137500050000003 0.375
 O6 O 0.8508400005 0.39862499949999997 0.375
 O6 O 0.8991599995 0.35137500050000003 0.375
 O7 O 0.7698449995000001 0.28517999875 0.29336500175
 O7 O 0.9801550005 0.46482000125 0.45663499825
 O7 O 0.9801550005 0.46482000125 0.29336500175
 O7 O 0.7698449995000001 0.28517999875 0.45663499825
 O7 O 0.9801550005 0.28517999875 0.45663499825
 O7 O 0.7698449995000001 0.46482000125 0.29336500175
 O7 O 0.7698449995000001 0.46482000125 0.45663499825
 O7 O 0.9801550005 0.28517999875 0.29336500175
 O7 O 0.8948449995 0.41017999875 0.29336500175
 O7 O 0.8551550004999999 0.33982000125 0.45663499825
 O7 O 0.8551550004999999 0.33982000125 0.29336500175
 O7 O 0.8948449995 0.41017999875 0.45663499825
 O7 O 0.8551550004999999 0.41017999875 0.45663499825
 O7 O 0.8948449995 0.33982000125 0.29336500175
 O7 O 0.8948449995 0.33982000125 0.45663499825
 O7 O 0.8551550004999999 0.41017999875 0.29336500175
 O8 O 0.8125 0.3125 0.25
 O8 O 0.8125 0.3125 0.5
 O8 O 0.9375 0.4375 0.25
 O8 O 0.9375 0.4375 0.5
 O8 O 0.9375 0.3125 0.25
 O8 O 0.9375 0.3125 0.5
 O8 O 0.8125 0.4375 0.25
 O8 O 0.8125 0.4375 0.5
 O9 O 0.78091249975 0.31469249725 0.25
 O9 O 0.78091249975 0.31469249725 0.5
 O9 O 0.96908750025 0.43530750274999996 0.25
 O9 O 0.96908750025 0.43530750274999996 0.5
 O9 O 0.96908750025 0.31469249725 0.25
 O9 O 0.96908750025 0.31469249725 0.5
 O9 O 0.78091249975 0.43530750274999996 0.25
 O9 O 0.78091249975 0.43530750274999996 0.5
 O9 O 0.90591249975 0.43969249725000004 0.25
 O9 O 0.90591249975 0.43969249725000004 0.5
 O9 O 0.84408750025 0.31030750275 0.25
 O9 O 0.84408750025 0.31030750275 0.5
 O9 O 0.84408750025 0.43969249725000004 0.25
 O9 O 0.84408750025 0.43969249725000004 0.5
 O9 O 0.90591249975 0.31030750275 0.25
 O9 O 0.90591249975 0.31030750275 0.5
 O10 O 0.75 0.30657500025 0.25
 O10 O 0.75 0.30657500025 0.5
 O10 O 1.0 0.30657500025 0.25
 O10 O 1.0 0.30657500025 0.5
 O10 O 0.75 0.44342499975 0.25
 O10 O 0.75 0.44342499975 0.5
 O10 O 1.0 0.44342499975 0.25
 O10 O 1.0 0.44342499975 0.5
 O10 O 0.875 0.43157500025 0.25
 O10 O 0.875 0.43157500025 0.5
 O10 O 0.875 0.31842499975 0.25
 O10 O 0.875 0.31842499975 0.5
 O2 O 0.7976175025000001 0.33963499975 0.20677249875
 O2 O 0.7976175025000001 0.33963499975 0.5432275012500001
 O2 O 0.9523824975 0.41036500025 0.20677249875
 O2 O 0.9523824975 0.41036500025 0.5432275012500001
 O2 O 0.9523824975 0.33963499975 0.20677249875
 O2 O 0.9523824975 0.33963499975 0.5432275012500001
 O2 O 0.7976175025000001 0.41036500025 0.20677249875
 O2 O 0.7976175025000001 0.41036500025 0.5432275012500001
 O2 O 0.9226175025 0.46463499975 0.20677249875
 O2 O 0.9226175025 0.46463499975 0.5432275012500001
 O2 O 0.8273824974999999 0.28536500025 0.20677249875
 O2 O 0.8273824974999999 0.28536500025 0.5432275012500001
 O2 O 0.8273824974999999 0.46463499975 0.20677249875
 O2 O 0.8273824974999999 0.46463499975 0.5432275012500001
 O2 O 0.9226175025 0.28536500025 0.20677249875
 O2 O 0.9226175025 0.28536500025 0.5432275012500001
 O7 O 0.7698449995000001 0.28517999875 0.20663499825
 O7 O 0.7698449995000001 0.28517999875 0.54336500175
 O7 O 0.9801550005 0.46482000125 0.20663499825
 O7 O 0.9801550005 0.46482000125 0.54336500175
 O7 O 0.9801550005 0.28517999875 0.20663499825
 O7 O 0.9801550005 0.28517999875 0.54336500175
 O7 O 0.7698449995000001 0.46482000125 0.20663499825
 O7 O 0.7698449995000001 0.46482000125 0.54336500175
 O7 O 0.8948449995 0.41017999875 0.20663499825
 O7 O 0.8948449995 0.41017999875 0.54336500175
 O7 O 0.8551550004999999 0.33982000125 0.20663499825
 O7 O 0.8551550004999999 0.33982000125 0.54336500175
 O7 O 0.8551550004999999 0.41017999875 0.20663499825
 O7 O 0.8551550004999999 0.41017999875 0.54336500175
 O7 O 0.8948449995 0.33982000125 0.20663499825
 O7 O 0.8948449995 0.33982000125 0.54336500175
 Si1 Si 0.0672350005 0.5216099992500001 0.32483500249999997
 Si1 Si 0.1827649995 0.7283900007499999 0.42516499750000003
 Si1 Si 0.1827649995 0.7283900007499999 0.32483500249999997
 Si1 Si 0.0672350005 0.5216099992500001 0.42516499750000003
 Si1 Si 0.1827649995 0.5216099992500001 0.42516499750000003
 Si1 Si 0.0672350005 0.7283900007499999 0.32483500249999997
 Si1 Si 0.0672350005 0.7283900007499999 0.42516499750000003
 Si1 Si 0.1827649995 0.5216099992500001 0.32483500249999997
 Si1 Si 0.1922350005 0.6466099992500001 0.32483500249999997
 Si1 Si 0.0577649995 0.6033900007499999 0.42516499750000003
 Si1 Si 0.0577649995 0.6033900007499999 0.32483500249999997
 Si1 Si 0.1922350005 0.6466099992500001 0.42516499750000003
 Si1 Si 0.0577649995 0.6466099992500001 0.42516499750000003
 Si1 Si 0.1922350005 0.6033900007499999 0.32483500249999997
 Si1 Si 0.1922350005 0.6033900007499999 0.42516499750000003
 Si1 Si 0.0577649995 0.6466099992500001 0.32483500249999997
 Si2 Si 0.03017999975 0.5215750002499999 0.324832499
 Si2 Si 0.21982000025 0.72842499975 0.425167501
 Si2 Si 0.21982000025 0.72842499975 0.324832499
 Si2 Si 0.03017999975 0.5215750002499999 0.425167501
 Si2 Si 0.21982000025 0.5215750002499999 0.425167501
 Si2 Si 0.03017999975 0.72842499975 0.324832499
 Si2 Si 0.03017999975 0.72842499975 0.425167501
 Si2 Si 0.21982000025 0.5215750002499999 0.324832499
 Si2 Si 0.15517999975 0.64657500025 0.324832499
 Si2 Si 0.09482000025 0.60342499975 0.425167501
 Si2 Si 0.09482000025 0.60342499975 0.324832499
 Si2 Si 0.15517999975 0.64657500025 0.425167501
 Si2 Si 0.09482000025 0.64657500025 0.425167501
 Si2 Si 0.15517999975 0.60342499975 0.324832499
 Si2 Si 0.15517999975 0.60342499975 0.425167501
 Si2 Si 0.09482000025 0.64657500025 0.324832499
 Si3 Si 0.047362499 0.5764449985 0.25
 Si3 Si 0.047362499 0.5764449985 0.5
 Si3 Si 0.202637501 0.6735550015 0.25
 Si3 Si 0.202637501 0.6735550015 0.5
 Si3 Si 0.202637501 0.5764449985 0.25
 Si3 Si 0.202637501 0.5764449985 0.5
 Si3 Si 0.047362499 0.6735550015 0.25
 Si3 Si 0.047362499 0.6735550015 0.5
 Si3 Si 0.172362499 0.7014449985 0.25
 Si3 Si 0.172362499 0.7014449985 0.5
 Si3 Si 0.077637501 0.5485550015 0.25
 Si3 Si 0.077637501 0.5485550015 0.5
 Si3 Si 0.077637501 0.7014449985 0.25
 Si3 Si 0.077637501 0.7014449985 0.5
 Si3 Si 0.172362499 0.5485550015 0.25
 Si3 Si 0.172362499 0.5485550015 0.5
 Si4 Si 0.01785499975 0.54804499825 0.25
 Si4 Si 0.01785499975 0.54804499825 0.5
 Si4 Si 0.23214500025 0.70195500175 0.25
 Si4 Si 0.23214500025 0.70195500175 0.5
 Si4 Si 0.23214500025 0.54804499825 0.25
 Si4 Si 0.23214500025 0.54804499825 0.5
 Si4 Si 0.01785499975 0.70195500175 0.25
 Si4 Si 0.01785499975 0.70195500175 0.5
 Si4 Si 0.14285499975 0.67304499825 0.25
 Si4 Si 0.14285499975 0.67304499825 0.5
 Si4 Si 0.10714500025 0.57695500175 0.25
 Si4 Si 0.10714500025 0.57695500175 0.5
 Si4 Si 0.10714500025 0.67304499825 0.25
 Si4 Si 0.10714500025 0.67304499825 0.5
 Si4 Si 0.14285499975 0.57695500175 0.25
 Si4 Si 0.14285499975 0.57695500175 0.5
 O1 O 0.04870250075 0.5275350007499999 0.32191000125
 O1 O 0.20129749925 0.72246499925 0.42808999875
 O1 O 0.20129749925 0.72246499925 0.32191000125
 O1 O 0.04870250075 0.5275350007499999 0.42808999875
 O1 O 0.20129749925 0.5275350007499999 0.42808999875
 O1 O 0.04870250075 0.72246499925 0.32191000125
 O1 O 0.04870250075 0.72246499925 0.42808999875
 O1 O 0.20129749925 0.5275350007499999 0.32191000125
 O1 O 0.17370250075 0.65253500075 0.32191000125
 O1 O 0.07629749925 0.5974649992500001 0.42808999875
 O1 O 0.07629749925 0.5974649992500001 0.32191000125
 O1 O 0.17370250075 0.65253500075 0.42808999875
 O1 O 0.07629749925 0.65253500075 0.42808999875
 O1 O 0.17370250075 0.5974649992500001 0.32191000125
 O1 O 0.17370250075 0.5974649992500001 0.42808999875
 O1 O 0.07629749925 0.65253500075 0.32191000125
 O2 O 0.0773824975 0.53536500025 0.29322750125
 O2 O 0.1726175025 0.71463499975 0.45677249875000003
 O2 O 0.1726175025 0.71463499975 0.29322750125
 O2 O 0.0773824975 0.53536500025 0.45677249875000003
 O2 O 0.1726175025 0.53536500025 0.45677249875000003
 O2 O 0.0773824975 0.71463499975 0.29322750125
 O2 O 0.0773824975 0.71463499975 0.45677249875000003
 O2 O 0.1726175025 0.53536500025 0.29322750125
 O2 O 0.2023824975 0.66036500025 0.29322750125
 O2 O 0.0476175025 0.58963499975 0.45677249875000003
 O2 O 0.0476175025 0.58963499975 0.29322750125
 O2 O 0.2023824975 0.66036500025 0.45677249875000003
 O2 O 0.0476175025 0.66036500025 0.45677249875000003
 O2 O 0.2023824975 0.58963499975 0.29322750125
 O2 O 0.2023824975 0.58963499975 0.45677249875000003
 O2 O 0.0476175025 0.66036500025 0.29322750125
 O3 O 0.06933250275 0.5 0.30936750025
 O3 O 0.06933250275 0.75 0.30936750025
 O3 O 0.18066749725 0.5 0.44063249974999996
 O3 O 0.18066749725 0.75 0.44063249974999996
 O3 O 0.18066749725 0.5 0.30936750025
 O3 O 0.18066749725 0.75 0.30936750025
 O3 O 0.06933250275 0.5 0.44063249974999996
 O3 O 0.06933250275 0.75 0.44063249974999996
 O3 O 0.19433250275 0.625 0.30936750025
 O3 O 0.05566749725 0.625 0.44063249974999996
 O3 O 0.05566749725 0.625 0.30936750025
 O3 O 0.19433250275 0.625 0.44063249974999996
 O4 O 0.07323499775 0.52379499925 0.375
 O4 O 0.17676500225 0.72620500075 0.375
 O4 O 0.17676500225 0.52379499925 0.375
 O4 O 0.07323499775 0.72620500075 0.375
 O4 O 0.19823499775 0.64879499925 0.375
 O4 O 0.05176500225 0.60120500075 0.375
 O4 O 0.05176500225 0.64879499925 0.375
 O4 O 0.19823499775 0.60120500075 0.375
 O5 O 0.0281475 0.5 0.3090699985
 O5 O 0.0281475 0.75 0.3090699985
 O5 O 0.2218525 0.5 0.4409300015
 O5 O 0.2218525 0.75 0.4409300015
 O5 O 0.2218525 0.5 0.3090699985
 O5 O 0.2218525 0.75 0.3090699985
 O5 O 0.0281475 0.5 0.4409300015
 O5 O 0.0281475 0.75 0.4409300015
 O5 O 0.1531475 0.625 0.3090699985
 O5 O 0.0968525 0.625 0.4409300015
 O5 O 0.0968525 0.625 0.3090699985
 O5 O 0.1531475 0.625 0.4409300015
 O6 O 0.0241599995 0.5236249995 0.375
 O6 O 0.2258400005 0.7263750005 0.375
 O6 O 0.2258400005 0.5236249995 0.375
 O6 O 0.0241599995 0.7263750005 0.375
 O6 O 0.1491599995 0.6486249995 0.375
 O6 O 0.1008400005 0.6013750005 0.375
 O6 O 0.1008400005 0.6486249995 0.375
 O6 O 0.1491599995 0.6013750005 0.375
 O7 O 0.0198449995 0.53517999875 0.29336500175
 O7 O 0.2301550005 0.71482000125 0.45663499825
 O7 O 0.2301550005 0.71482000125 0.29336500175
 O7 O 0.0198449995 0.53517999875 0.45663499825
 O7 O 0.2301550005 0.53517999875 0.45663499825
 O7 O 0.0198449995 0.71482000125 0.29336500175
 O7 O 0.0198449995 0.71482000125 0.45663499825
 O7 O 0.2301550005 0.53517999875 0.29336500175
 O7 O 0.1448449995 0.66017999875 0.29336500175
 O7 O 0.1051550005 0.58982000125 0.45663499825
 O7 O 0.1051550005 0.58982000125 0.29336500175
 O7 O 0.1448449995 0.66017999875 0.45663499825
 O7 O 0.1051550005 0.66017999875 0.45663499825
 O7 O 0.1448449995 0.58982000125 0.29336500175
 O7 O 0.1448449995 0.58982000125 0.45663499825
 O7 O 0.1051550005 0.66017999875 0.29336500175
 O8 O 0.0625 0.5625 0.25
 O8 O 0.0625 0.5625 0.5
 O8 O 0.1875 0.6875 0.25
 O8 O 0.1875 0.6875 0.5
 O8 O 0.1875 0.5625 0.25
 O8 O 0.1875 0.5625 0.5
 O8 O 0.0625 0.6875 0.25
 O8 O 0.0625 0.6875 0.5
 O9 O 0.03091249975 0.56469249725 0.25
 O9 O 0.03091249975 0.56469249725 0.5
 O9 O 0.21908750025 0.68530750275 0.25
 O9 O 0.21908750025 0.68530750275 0.5
 O9 O 0.21908750025 0.56469249725 0.25
 O9 O 0.21908750025 0.56469249725 0.5
 O9 O 0.03091249975 0.68530750275 0.25
 O9 O 0.03091249975 0.68530750275 0.5
 O9 O 0.15591249975 0.68969249725 0.25
 O9 O 0.15591249975 0.68969249725 0.5
 O9 O 0.09408750025 0.56030750275 0.25
 O9 O 0.09408750025 0.56030750275 0.5
 O9 O 0.09408750025 0.68969249725 0.25
 O9 O 0.09408750025 0.68969249725 0.5
 O9 O 0.15591249975 0.56030750275 0.25
 O9 O 0.15591249975 0.56030750275 0.5
 O10 O 0.0 0.5565750002500001 0.25
 O10 O 0.0 0.5565750002500001 0.5
 O10 O 0.25 0.5565750002500001 0.25
 O10 O 0.25 0.5565750002500001 0.5
 O10 O 0.0 0.6934249997499999 0.25
 O10 O 0.0 0.6934249997499999 0.5
 O10 O 0.25 0.6934249997499999 0.25
 O10 O 0.25 0.6934249997499999 0.5
 O10 O 0.125 0.6815750002500001 0.25
 O10 O 0.125 0.6815750002500001 0.5
 O10 O 0.125 0.5684249997499999 0.25
 O10 O 0.125 0.5684249997499999 0.5
 O2 O 0.0476175025 0.58963499975 0.20677249875
 O2 O 0.0476175025 0.58963499975 0.5432275012500001
 O2 O 0.2023824975 0.66036500025 0.20677249875
 O2 O 0.2023824975 0.66036500025 0.5432275012500001
 O2 O 0.2023824975 0.58963499975 0.20677249875
 O2 O 0.2023824975 0.58963499975 0.5432275012500001
 O2 O 0.0476175025 0.66036500025 0.20677249875
 O2 O 0.0476175025 0.66036500025 0.5432275012500001
 O2 O 0.1726175025 0.71463499975 0.20677249875
 O2 O 0.1726175025 0.71463499975 0.5432275012500001
 O2 O 0.0773824975 0.53536500025 0.20677249875
 O2 O 0.0773824975 0.53536500025 0.5432275012500001
 O2 O 0.0773824975 0.71463499975 0.20677249875
 O2 O 0.0773824975 0.71463499975 0.5432275012500001
 O2 O 0.1726175025 0.53536500025 0.20677249875
 O2 O 0.1726175025 0.53536500025 0.5432275012500001
 O7 O 0.0198449995 0.53517999875 0.20663499825
 O7 O 0.0198449995 0.53517999875 0.54336500175
 O7 O 0.2301550005 0.71482000125 0.20663499825
 O7 O 0.2301550005 0.71482000125 0.54336500175
 O7 O 0.2301550005 0.53517999875 0.20663499825
 O7 O 0.2301550005 0.53517999875 0.54336500175
 O7 O 0.0198449995 0.71482000125 0.20663499825
 O7 O 0.0198449995 0.71482000125 0.54336500175
 O7 O 0.1448449995 0.66017999875 0.20663499825
 O7 O 0.1448449995 0.66017999875 0.54336500175
 O7 O 0.1051550005 0.58982000125 0.20663499825
 O7 O 0.1051550005 0.58982000125 0.54336500175
 O7 O 0.1051550005 0.66017999875 0.20663499825
 O7 O 0.1051550005 0.66017999875 0.54336500175
 O7 O 0.1448449995 0.58982000125 0.20663499825
 O7 O 0.1448449995 0.58982000125 0.54336500175
 Si1 Si 0.3172350005 0.5216099992500001 0.32483500249999997
 Si1 Si 0.4327649995 0.7283900007499999 0.42516499750000003
 Si1 Si 0.4327649995 0.7283900007499999 0.32483500249999997
 Si1 Si 0.3172350005 0.5216099992500001 0.42516499750000003
 Si1 Si 0.4327649995 0.5216099992500001 0.42516499750000003
 Si1 Si 0.3172350005 0.7283900007499999 0.32483500249999997
 Si1 Si 0.3172350005 0.7283900007499999 0.42516499750000003
 Si1 Si 0.4327649995 0.5216099992500001 0.32483500249999997
 Si1 Si 0.4422350005 0.6466099992500001 0.32483500249999997
 Si1 Si 0.3077649995 0.6033900007499999 0.42516499750000003
 Si1 Si 0.3077649995 0.6033900007499999 0.32483500249999997
 Si1 Si 0.4422350005 0.6466099992500001 0.42516499750000003
 Si1 Si 0.3077649995 0.6466099992500001 0.42516499750000003
 Si1 Si 0.4422350005 0.6033900007499999 0.32483500249999997
 Si1 Si 0.4422350005 0.6033900007499999 0.42516499750000003
 Si1 Si 0.3077649995 0.6466099992500001 0.32483500249999997
 Si2 Si 0.28017999975 0.5215750002499999 0.324832499
 Si2 Si 0.46982000025000004 0.72842499975 0.425167501
 Si2 Si 0.46982000025000004 0.72842499975 0.324832499
 Si2 Si 0.28017999975 0.5215750002499999 0.425167501
 Si2 Si 0.46982000025000004 0.5215750002499999 0.425167501
 Si2 Si 0.28017999975 0.72842499975 0.324832499
 Si2 Si 0.28017999975 0.72842499975 0.425167501
 Si2 Si 0.46982000025000004 0.5215750002499999 0.324832499
 Si2 Si 0.40517999974999996 0.64657500025 0.324832499
 Si2 Si 0.34482000025 0.60342499975 0.425167501
 Si2 Si 0.34482000025 0.60342499975 0.324832499
 Si2 Si 0.40517999974999996 0.64657500025 0.425167501
 Si2 Si 0.34482000025 0.64657500025 0.425167501
 Si2 Si 0.40517999974999996 0.60342499975 0.324832499
 Si2 Si 0.40517999974999996 0.60342499975 0.425167501
 Si2 Si 0.34482000025 0.64657500025 0.324832499
 Si3 Si 0.297362499 0.5764449985 0.25
 Si3 Si 0.297362499 0.5764449985 0.5
 Si3 Si 0.452637501 0.6735550015 0.25
 Si3 Si 0.452637501 0.6735550015 0.5
 Si3 Si 0.452637501 0.5764449985 0.25
 Si3 Si 0.452637501 0.5764449985 0.5
 Si3 Si 0.297362499 0.6735550015 0.25
 Si3 Si 0.297362499 0.6735550015 0.5
 Si3 Si 0.422362499 0.7014449985 0.25
 Si3 Si 0.422362499 0.7014449985 0.5
 Si3 Si 0.327637501 0.5485550015 0.25
 Si3 Si 0.327637501 0.5485550015 0.5
 Si3 Si 0.327637501 0.7014449985 0.25
 Si3 Si 0.327637501 0.7014449985 0.5
 Si3 Si 0.422362499 0.5485550015 0.25
 Si3 Si 0.422362499 0.5485550015 0.5
 Si4 Si 0.26785499975 0.54804499825 0.25
 Si4 Si 0.26785499975 0.54804499825 0.5
 Si4 Si 0.48214500025 0.70195500175 0.25
 Si4 Si 0.48214500025 0.70195500175 0.5
 Si4 Si 0.48214500025 0.54804499825 0.25
 Si4 Si 0.48214500025 0.54804499825 0.5
 Si4 Si 0.26785499975 0.70195500175 0.25
 Si4 Si 0.26785499975 0.70195500175 0.5
 Si4 Si 0.39285499975 0.67304499825 0.25
 Si4 Si 0.39285499975 0.67304499825 0.5
 Si4 Si 0.35714500025 0.57695500175 0.25
 Si4 Si 0.35714500025 0.57695500175 0.5
 Si4 Si 0.35714500025 0.67304499825 0.25
 Si4 Si 0.35714500025 0.67304499825 0.5
 Si4 Si 0.39285499975 0.57695500175 0.25
 Si4 Si 0.39285499975 0.57695500175 0.5
 O1 O 0.29870250075 0.5275350007499999 0.32191000125
 O1 O 0.45129749925 0.72246499925 0.42808999875
 O1 O 0.45129749925 0.72246499925 0.32191000125
 O1 O 0.29870250075 0.5275350007499999 0.42808999875
 O1 O 0.45129749925 0.5275350007499999 0.42808999875
 O1 O 0.29870250075 0.72246499925 0.32191000125
 O1 O 0.29870250075 0.72246499925 0.42808999875
 O1 O 0.45129749925 0.5275350007499999 0.32191000125
 O1 O 0.42370250075 0.65253500075 0.32191000125
 O1 O 0.32629749925 0.5974649992500001 0.42808999875
 O1 O 0.32629749925 0.5974649992500001 0.32191000125
 O1 O 0.42370250075 0.65253500075 0.42808999875
 O1 O 0.32629749925 0.65253500075 0.42808999875
 O1 O 0.42370250075 0.5974649992500001 0.32191000125
 O1 O 0.42370250075 0.5974649992500001 0.42808999875
 O1 O 0.32629749925 0.65253500075 0.32191000125
 O2 O 0.3273824975 0.53536500025 0.29322750125
 O2 O 0.42261750249999996 0.71463499975 0.45677249875000003
 O2 O 0.42261750249999996 0.71463499975 0.29322750125
 O2 O 0.3273824975 0.53536500025 0.45677249875000003
 O2 O 0.42261750249999996 0.53536500025 0.45677249875000003
 O2 O 0.3273824975 0.71463499975 0.29322750125
 O2 O 0.3273824975 0.71463499975 0.45677249875000003
 O2 O 0.42261750249999996 0.53536500025 0.29322750125
 O2 O 0.45238249750000004 0.66036500025 0.29322750125
 O2 O 0.2976175025 0.58963499975 0.45677249875000003
 O2 O 0.2976175025 0.58963499975 0.29322750125
 O2 O 0.45238249750000004 0.66036500025 0.45677249875000003
 O2 O 0.2976175025 0.66036500025 0.45677249875000003
 O2 O 0.45238249750000004 0.58963499975 0.29322750125
 O2 O 0.45238249750000004 0.58963499975 0.45677249875000003
 O2 O 0.2976175025 0.66036500025 0.29322750125
 O3 O 0.31933250275 0.5 0.30936750025
 O3 O 0.31933250275 0.75 0.30936750025
 O3 O 0.43066749725 0.5 0.44063249974999996
 O3 O 0.43066749725 0.75 0.44063249974999996
 O3 O 0.43066749725 0.5 0.30936750025
 O3 O 0.43066749725 0.75 0.30936750025
 O3 O 0.31933250275 0.5 0.44063249974999996
 O3 O 0.31933250275 0.75 0.44063249974999996
 O3 O 0.44433250275 0.625 0.30936750025
 O3 O 0.30566749725 0.625 0.44063249974999996
 O3 O 0.30566749725 0.625 0.30936750025
 O3 O 0.44433250275 0.625 0.44063249974999996
 O4 O 0.32323499775 0.52379499925 0.375
 O4 O 0.42676500225 0.72620500075 0.375
 O4 O 0.42676500225 0.52379499925 0.375
 O4 O 0.32323499775 0.72620500075 0.375
 O4 O 0.44823499775 0.64879499925 0.375
 O4 O 0.30176500225 0.60120500075 0.375
 O4 O 0.30176500225 0.64879499925 0.375
 O4 O 0.44823499775 0.60120500075 0.375
 O5 O 0.2781475 0.5 0.3090699985
 O5 O 0.2781475 0.75 0.3090699985
 O5 O 0.4718525 0.5 0.4409300015
 O5 O 0.4718525 0.75 0.4409300015
 O5 O 0.4718525 0.5 0.3090699985
 O5 O 0.4718525 0.75 0.3090699985
 O5 O 0.2781475 0.5 0.4409300015
 O5 O 0.2781475 0.75 0.4409300015
 O5 O 0.4031475 0.625 0.3090699985
 O5 O 0.3468525 0.625 0.4409300015
 O5 O 0.3468525 0.625 0.3090699985
 O5 O 0.4031475 0.625 0.4409300015
 O6 O 0.27415999950000003 0.5236249995 0.375
 O6 O 0.47584000049999997 0.7263750005 0.375
 O6 O 0.47584000049999997 0.5236249995 0.375
 O6 O 0.27415999950000003 0.7263750005 0.375
 O6 O 0.39915999950000003 0.6486249995 0.375
 O6 O 0.35084000049999997 0.6013750005 0.375
 O6 O 0.35084000049999997 0.6486249995 0.375
 O6 O 0.39915999950000003 0.6013750005 0.375
 O7 O 0.2698449995 0.53517999875 0.29336500175
 O7 O 0.48015500050000004 0.71482000125 0.45663499825
 O7 O 0.48015500050000004 0.71482000125 0.29336500175
 O7 O 0.2698449995 0.53517999875 0.45663499825
 O7 O 0.48015500050000004 0.53517999875 0.45663499825
 O7 O 0.2698449995 0.71482000125 0.29336500175
 O7 O 0.2698449995 0.71482000125 0.45663499825
 O7 O 0.48015500050000004 0.53517999875 0.29336500175
 O7 O 0.39484499949999996 0.66017999875 0.29336500175
 O7 O 0.3551550005 0.58982000125 0.45663499825
 O7 O 0.3551550005 0.58982000125 0.29336500175
 O7 O 0.39484499949999996 0.66017999875 0.45663499825
 O7 O 0.3551550005 0.66017999875 0.45663499825
 O7 O 0.39484499949999996 0.58982000125 0.29336500175
 O7 O 0.39484499949999996 0.58982000125 0.45663499825
 O7 O 0.3551550005 0.66017999875 0.29336500175
 O8 O 0.3125 0.5625 0.25
 O8 O 0.3125 0.5625 0.5
 O8 O 0.4375 0.6875 0.25
 O8 O 0.4375 0.6875 0.5
 O8 O 0.4375 0.5625 0.25
 O8 O 0.4375 0.5625 0.5
 O8 O 0.3125 0.6875 0.25
 O8 O 0.3125 0.6875 0.5
 O9 O 0.28091249975 0.56469249725 0.25
 O9 O 0.28091249975 0.56469249725 0.5
 O9 O 0.46908750025 0.68530750275 0.25
 O9 O 0.46908750025 0.68530750275 0.5
 O9 O 0.46908750025 0.56469249725 0.25
 O9 O 0.46908750025 0.56469249725 0.5
 O9 O 0.28091249975 0.68530750275 0.25
 O9 O 0.28091249975 0.68530750275 0.5
 O9 O 0.40591249975 0.68969249725 0.25
 O9 O 0.40591249975 0.68969249725 0.5
 O9 O 0.34408750025 0.56030750275 0.25
 O9 O 0.34408750025 0.56030750275 0.5
 O9 O 0.34408750025 0.68969249725 0.25
 O9 O 0.34408750025 0.68969249725 0.5
 O9 O 0.40591249975 0.56030750275 0.25
 O9 O 0.40591249975 0.56030750275 0.5
 O10 O 0.25 0.5565750002500001 0.25
 O10 O 0.25 0.5565750002500001 0.5
 O10 O 0.5 0.5565750002500001 0.25
 O10 O 0.5 0.5565750002500001 0.5
 O10 O 0.25 0.6934249997499999 0.25
 O10 O 0.25 0.6934249997499999 0.5
 O10 O 0.5 0.6934249997499999 0.25
 O10 O 0.5 0.6934249997499999 0.5
 O10 O 0.375 0.6815750002500001 0.25
 O10 O 0.375 0.6815750002500001 0.5
 O10 O 0.375 0.5684249997499999 0.25
 O10 O 0.375 0.5684249997499999 0.5
 O2 O 0.2976175025 0.58963499975 0.20677249875
 O2 O 0.2976175025 0.58963499975 0.5432275012500001
 O2 O 0.45238249750000004 0.66036500025 0.20677249875
 O2 O 0.45238249750000004 0.66036500025 0.5432275012500001
 O2 O 0.45238249750000004 0.58963499975 0.20677249875
 O2 O 0.45238249750000004 0.58963499975 0.5432275012500001
 O2 O 0.2976175025 0.66036500025 0.20677249875
 O2 O 0.2976175025 0.66036500025 0.5432275012500001
 O2 O 0.42261750249999996 0.71463499975 0.20677249875
 O2 O 0.42261750249999996 0.71463499975 0.5432275012500001
 O2 O 0.3273824975 0.53536500025 0.20677249875
 O2 O 0.3273824975 0.53536500025 0.5432275012500001
 O2 O 0.3273824975 0.71463499975 0.20677249875
 O2 O 0.3273824975 0.71463499975 0.5432275012500001
 O2 O 0.42261750249999996 0.53536500025 0.20677249875
 O2 O 0.42261750249999996 0.53536500025 0.5432275012500001
 O7 O 0.2698449995 0.53517999875 0.20663499825
 O7 O 0.2698449995 0.53517999875 0.54336500175
 O7 O 0.48015500050000004 0.71482000125 0.20663499825
 O7 O 0.48015500050000004 0.71482000125 0.54336500175
 O7 O 0.48015500050000004 0.53517999875 0.20663499825
 O7 O 0.48015500050000004 0.53517999875 0.54336500175
 O7 O 0.2698449995 0.71482000125 0.20663499825
 O7 O 0.2698449995 0.71482000125 0.54336500175
 O7 O 0.39484499949999996 0.66017999875 0.20663499825
 O7 O 0.39484499949999996 0.66017999875 0.54336500175
 O7 O 0.3551550005 0.58982000125 0.20663499825
 O7 O 0.3551550005 0.58982000125 0.54336500175
 O7 O 0.3551550005 0.66017999875 0.20663499825
 O7 O 0.3551550005 0.66017999875 0.54336500175
 O7 O 0.39484499949999996 0.58982000125 0.20663499825
 O7 O 0.39484499949999996 0.58982000125 0.54336500175
 Si1 Si 0.5672350005 0.5216099992500001 0.32483500249999997
 Si1 Si 0.6827649995 0.7283900007499999 0.42516499750000003
 Si1 Si 0.6827649995 0.7283900007499999 0.32483500249999997
 Si1 Si 0.5672350005 0.5216099992500001 0.42516499750000003
 Si1 Si 0.6827649995 0.5216099992500001 0.42516499750000003
 Si1 Si 0.5672350005 0.7283900007499999 0.32483500249999997
 Si1 Si 0.5672350005 0.7283900007499999 0.42516499750000003
 Si1 Si 0.6827649995 0.5216099992500001 0.32483500249999997
 Si1 Si 0.6922350005 0.6466099992500001 0.32483500249999997
 Si1 Si 0.5577649995 0.6033900007499999 0.42516499750000003
 Si1 Si 0.5577649995 0.6033900007499999 0.32483500249999997
 Si1 Si 0.6922350005 0.6466099992500001 0.42516499750000003
 Si1 Si 0.5577649995 0.6466099992500001 0.42516499750000003
 Si1 Si 0.6922350005 0.6033900007499999 0.32483500249999997
 Si1 Si 0.6922350005 0.6033900007499999 0.42516499750000003
 Si1 Si 0.5577649995 0.6466099992500001 0.32483500249999997
 Si2 Si 0.5301799997500001 0.5215750002499999 0.324832499
 Si2 Si 0.71982000025 0.72842499975 0.425167501
 Si2 Si 0.71982000025 0.72842499975 0.324832499
 Si2 Si 0.5301799997500001 0.5215750002499999 0.425167501
 Si2 Si 0.71982000025 0.5215750002499999 0.425167501
 Si2 Si 0.5301799997500001 0.72842499975 0.324832499
 Si2 Si 0.5301799997500001 0.72842499975 0.425167501
 Si2 Si 0.71982000025 0.5215750002499999 0.324832499
 Si2 Si 0.65517999975 0.64657500025 0.324832499
 Si2 Si 0.5948200002499999 0.60342499975 0.425167501
 Si2 Si 0.5948200002499999 0.60342499975 0.324832499
 Si2 Si 0.65517999975 0.64657500025 0.425167501
 Si2 Si 0.5948200002499999 0.64657500025 0.425167501
 Si2 Si 0.65517999975 0.60342499975 0.324832499
 Si2 Si 0.65517999975 0.60342499975 0.425167501
 Si2 Si 0.5948200002499999 0.64657500025 0.324832499
 Si3 Si 0.547362499 0.5764449985 0.25
 Si3 Si 0.547362499 0.5764449985 0.5
 Si3 Si 0.702637501 0.6735550015 0.25
 Si3 Si 0.702637501 0.6735550015 0.5
 Si3 Si 0.702637501 0.5764449985 0.25
 Si3 Si 0.702637501 0.5764449985 0.5
 Si3 Si 0.547362499 0.6735550015 0.25
 Si3 Si 0.547362499 0.6735550015 0.5
 Si3 Si 0.672362499 0.7014449985 0.25
 Si3 Si 0.672362499 0.7014449985 0.5
 Si3 Si 0.577637501 0.5485550015 0.25
 Si3 Si 0.577637501 0.5485550015 0.5
 Si3 Si 0.577637501 0.7014449985 0.25
 Si3 Si 0.577637501 0.7014449985 0.5
 Si3 Si 0.672362499 0.5485550015 0.25
 Si3 Si 0.672362499 0.5485550015 0.5
 Si4 Si 0.5178549997499999 0.54804499825 0.25
 Si4 Si 0.5178549997499999 0.54804499825 0.5
 Si4 Si 0.7321450002500001 0.70195500175 0.25
 Si4 Si 0.7321450002500001 0.70195500175 0.5
 Si4 Si 0.7321450002500001 0.54804499825 0.25
 Si4 Si 0.7321450002500001 0.54804499825 0.5
 Si4 Si 0.5178549997499999 0.70195500175 0.25
 Si4 Si 0.5178549997499999 0.70195500175 0.5
 Si4 Si 0.6428549997499999 0.67304499825 0.25
 Si4 Si 0.6428549997499999 0.67304499825 0.5
 Si4 Si 0.6071450002500001 0.57695500175 0.25
 Si4 Si 0.6071450002500001 0.57695500175 0.5
 Si4 Si 0.6071450002500001 0.67304499825 0.25
 Si4 Si 0.6071450002500001 0.67304499825 0.5
 Si4 Si 0.6428549997499999 0.57695500175 0.25
 Si4 Si 0.6428549997499999 0.57695500175 0.5
 O1 O 0.5487025007499999 0.5275350007499999 0.32191000125
 O1 O 0.7012974992500001 0.72246499925 0.42808999875
 O1 O 0.7012974992500001 0.72246499925 0.32191000125
 O1 O 0.5487025007499999 0.5275350007499999 0.42808999875
 O1 O 0.7012974992500001 0.5275350007499999 0.42808999875
 O1 O 0.5487025007499999 0.72246499925 0.32191000125
 O1 O 0.5487025007499999 0.72246499925 0.42808999875
 O1 O 0.7012974992500001 0.5275350007499999 0.32191000125
 O1 O 0.6737025007499999 0.65253500075 0.32191000125
 O1 O 0.5762974992500001 0.5974649992500001 0.42808999875
 O1 O 0.5762974992500001 0.5974649992500001 0.32191000125
 O1 O 0.6737025007499999 0.65253500075 0.42808999875
 O1 O 0.5762974992500001 0.65253500075 0.42808999875
 O1 O 0.6737025007499999 0.5974649992500001 0.32191000125
 O1 O 0.6737025007499999 0.5974649992500001 0.42808999875
 O1 O 0.5762974992500001 0.65253500075 0.32191000125
 O2 O 0.5773824974999999 0.53536500025 0.29322750125
 O2 O 0.6726175025 0.71463499975 0.45677249875000003
 O2 O 0.6726175025 0.71463499975 0.29322750125
 O2 O 0.5773824974999999 0.53536500025 0.45677249875000003
 O2 O 0.6726175025 0.53536500025 0.45677249875000003
 O2 O 0.5773824974999999 0.71463499975 0.29322750125
 O2 O 0.5773824974999999 0.71463499975 0.45677249875000003
 O2 O 0.6726175025 0.53536500025 0.29322750125
 O2 O 0.7023824975 0.66036500025 0.29322750125
 O2 O 0.5476175025000001 0.58963499975 0.45677249875000003
 O2 O 0.5476175025000001 0.58963499975 0.29322750125
 O2 O 0.7023824975 0.66036500025 0.45677249875000003
 O2 O 0.5476175025000001 0.66036500025 0.45677249875000003
 O2 O 0.7023824975 0.58963499975 0.29322750125
 O2 O 0.7023824975 0.58963499975 0.45677249875000003
 O2 O 0.5476175025000001 0.66036500025 0.29322750125
 O3 O 0.56933250275 0.5 0.30936750025
 O3 O 0.56933250275 0.75 0.30936750025
 O3 O 0.68066749725 0.5 0.44063249974999996
 O3 O 0.68066749725 0.75 0.44063249974999996
 O3 O 0.68066749725 0.5 0.30936750025
 O3 O 0.68066749725 0.75 0.30936750025
 O3 O 0.56933250275 0.5 0.44063249974999996
 O3 O 0.56933250275 0.75 0.44063249974999996
 O3 O 0.69433250275 0.625 0.30936750025
 O3 O 0.55566749725 0.625 0.44063249974999996
 O3 O 0.55566749725 0.625 0.30936750025
 O3 O 0.69433250275 0.625 0.44063249974999996
 O4 O 0.57323499775 0.52379499925 0.375
 O4 O 0.67676500225 0.72620500075 0.375
 O4 O 0.67676500225 0.52379499925 0.375
 O4 O 0.57323499775 0.72620500075 0.375
 O4 O 0.69823499775 0.64879499925 0.375
 O4 O 0.55176500225 0.60120500075 0.375
 O4 O 0.55176500225 0.64879499925 0.375
 O4 O 0.69823499775 0.60120500075 0.375
 O5 O 0.5281475 0.5 0.3090699985
 O5 O 0.5281475 0.75 0.3090699985
 O5 O 0.7218525 0.5 0.4409300015
 O5 O 0.7218525 0.75 0.4409300015
 O5 O 0.7218525 0.5 0.3090699985
 O5 O 0.7218525 0.75 0.3090699985
 O5 O 0.5281475 0.5 0.4409300015
 O5 O 0.5281475 0.75 0.4409300015
 O5 O 0.6531475 0.625 0.3090699985
 O5 O 0.5968525 0.625 0.4409300015
 O5 O 0.5968525 0.625 0.3090699985
 O5 O 0.6531475 0.625 0.4409300015
 O6 O 0.5241599995 0.5236249995 0.375
 O6 O 0.7258400005 0.7263750005 0.375
 O6 O 0.7258400005 0.5236249995 0.375
 O6 O 0.5241599995 0.7263750005 0.375
 O6 O 0.6491599995 0.6486249995 0.375
 O6 O 0.6008400005 0.6013750005 0.375
 O6 O 0.6008400005 0.6486249995 0.375
 O6 O 0.6491599995 0.6013750005 0.375
 O7 O 0.5198449995000001 0.53517999875 0.29336500175
 O7 O 0.7301550005 0.71482000125 0.45663499825
 O7 O 0.7301550005 0.71482000125 0.29336500175
 O7 O 0.5198449995000001 0.53517999875 0.45663499825
 O7 O 0.7301550005 0.53517999875 0.45663499825
 O7 O 0.5198449995000001 0.71482000125 0.29336500175
 O7 O 0.5198449995000001 0.71482000125 0.45663499825
 O7 O 0.7301550005 0.53517999875 0.29336500175
 O7 O 0.6448449995 0.66017999875 0.29336500175
 O7 O 0.6051550004999999 0.58982000125 0.45663499825
 O7 O 0.6051550004999999 0.58982000125 0.29336500175
 O7 O 0.6448449995 0.66017999875 0.45663499825
 O7 O 0.6051550004999999 0.66017999875 0.45663499825
 O7 O 0.6448449995 0.58982000125 0.29336500175
 O7 O 0.6448449995 0.58982000125 0.45663499825
 O7 O 0.6051550004999999 0.66017999875 0.29336500175
 O8 O 0.5625 0.5625 0.25
 O8 O 0.5625 0.5625 0.5
 O8 O 0.6875 0.6875 0.25
 O8 O 0.6875 0.6875 0.5
 O8 O 0.6875 0.5625 0.25
 O8 O 0.6875 0.5625 0.5
 O8 O 0.5625 0.6875 0.25
 O8 O 0.5625 0.6875 0.5
 O9 O 0.53091249975 0.56469249725 0.25
 O9 O 0.53091249975 0.56469249725 0.5
 O9 O 0.71908750025 0.68530750275 0.25
 O9 O 0.71908750025 0.68530750275 0.5
 O9 O 0.71908750025 0.56469249725 0.25
 O9 O 0.71908750025 0.56469249725 0.5
 O9 O 0.53091249975 0.68530750275 0.25
 O9 O 0.53091249975 0.68530750275 0.5
 O9 O 0.65591249975 0.68969249725 0.25
 O9 O 0.65591249975 0.68969249725 0.5
 O9 O 0.59408750025 0.56030750275 0.25
 O9 O 0.59408750025 0.56030750275 0.5
 O9 O 0.59408750025 0.68969249725 0.25
 O9 O 0.59408750025 0.68969249725 0.5
 O9 O 0.65591249975 0.56030750275 0.25
 O9 O 0.65591249975 0.56030750275 0.5
 O10 O 0.5 0.5565750002500001 0.25
 O10 O 0.5 0.5565750002500001 0.5
 O10 O 0.75 0.5565750002500001 0.25
 O10 O 0.75 0.5565750002500001 0.5
 O10 O 0.5 0.6934249997499999 0.25
 O10 O 0.5 0.6934249997499999 0.5
 O10 O 0.75 0.6934249997499999 0.25
 O10 O 0.75 0.6934249997499999 0.5
 O10 O 0.625 0.6815750002500001 0.25
 O10 O 0.625 0.6815750002500001 0.5
 O10 O 0.625 0.5684249997499999 0.25
 O10 O 0.625 0.5684249997499999 0.5
 O2 O 0.5476175025000001 0.58963499975 0.20677249875
 O2 O 0.5476175025000001 0.58963499975 0.5432275012500001
 O2 O 0.7023824975 0.66036500025 0.20677249875
 O2 O 0.7023824975 0.66036500025 0.5432275012500001
 O2 O 0.7023824975 0.58963499975 0.20677249875
 O2 O 0.7023824975 0.58963499975 0.5432275012500001
 O2 O 0.5476175025000001 0.66036500025 0.20677249875
 O2 O 0.5476175025000001 0.66036500025 0.5432275012500001
 O2 O 0.6726175025 0.71463499975 0.20677249875
 O2 O 0.6726175025 0.71463499975 0.5432275012500001
 O2 O 0.5773824974999999 0.53536500025 0.20677249875
 O2 O 0.5773824974999999 0.53536500025 0.5432275012500001
 O2 O 0.5773824974999999 0.71463499975 0.20677249875
 O2 O 0.5773824974999999 0.71463499975 0.5432275012500001
 O2 O 0.6726175025 0.53536500025 0.20677249875
 O2 O 0.6726175025 0.53536500025 0.5432275012500001
 O7 O 0.5198449995000001 0.53517999875 0.20663499825
 O7 O 0.5198449995000001 0.53517999875 0.54336500175
 O7 O 0.7301550005 0.71482000125 0.20663499825
 O7 O 0.7301550005 0.71482000125 0.54336500175
 O7 O 0.7301550005 0.53517999875 0.20663499825
 O7 O 0.7301550005 0.53517999875 0.54336500175
 O7 O 0.5198449995000001 0.71482000125 0.20663499825
 O7 O 0.5198449995000001 0.71482000125 0.54336500175
 O7 O 0.6448449995 0.66017999875 0.20663499825
 O7 O 0.6448449995 0.66017999875 0.54336500175
 O7 O 0.6051550004999999 0.58982000125 0.20663499825
 O7 O 0.6051550004999999 0.58982000125 0.54336500175
 O7 O 0.6051550004999999 0.66017999875 0.20663499825
 O7 O 0.6051550004999999 0.66017999875 0.54336500175
 O7 O 0.6448449995 0.58982000125 0.20663499825
 O7 O 0.6448449995 0.58982000125 0.54336500175
 Si1 Si 0.8172350005 0.5216099992500001 0.32483500249999997
 Si1 Si 0.9327649995 0.7283900007499999 0.42516499750000003
 Si1 Si 0.9327649995 0.7283900007499999 0.32483500249999997
 Si1 Si 0.8172350005 0.5216099992500001 0.42516499750000003
 Si1 Si 0.9327649995 0.5216099992500001 0.42516499750000003
 Si1 Si 0.8172350005 0.7283900007499999 0.32483500249999997
 Si1 Si 0.8172350005 0.7283900007499999 0.42516499750000003
 Si1 Si 0.9327649995 0.5216099992500001 0.32483500249999997
 Si1 Si 0.9422350005 0.6466099992500001 0.32483500249999997
 Si1 Si 0.8077649995 0.6033900007499999 0.42516499750000003
 Si1 Si 0.8077649995 0.6033900007499999 0.32483500249999997
 Si1 Si 0.9422350005 0.6466099992500001 0.42516499750000003
 Si1 Si 0.8077649995 0.6466099992500001 0.42516499750000003
 Si1 Si 0.9422350005 0.6033900007499999 0.32483500249999997
 Si1 Si 0.9422350005 0.6033900007499999 0.42516499750000003
 Si1 Si 0.8077649995 0.6466099992500001 0.32483500249999997
 Si2 Si 0.7801799997500001 0.5215750002499999 0.324832499
 Si2 Si 0.96982000025 0.72842499975 0.425167501
 Si2 Si 0.96982000025 0.72842499975 0.324832499
 Si2 Si 0.7801799997500001 0.5215750002499999 0.425167501
 Si2 Si 0.96982000025 0.5215750002499999 0.425167501
 Si2 Si 0.7801799997500001 0.72842499975 0.324832499
 Si2 Si 0.7801799997500001 0.72842499975 0.425167501
 Si2 Si 0.96982000025 0.5215750002499999 0.324832499
 Si2 Si 0.90517999975 0.64657500025 0.324832499
 Si2 Si 0.8448200002499999 0.60342499975 0.425167501
 Si2 Si 0.8448200002499999 0.60342499975 0.324832499
 Si2 Si 0.90517999975 0.64657500025 0.425167501
 Si2 Si 0.8448200002499999 0.64657500025 0.425167501
 Si2 Si 0.90517999975 0.60342499975 0.324832499
 Si2 Si 0.90517999975 0.60342499975 0.425167501
 Si2 Si 0.8448200002499999 0.64657500025 0.324832499
 Si3 Si 0.797362499 0.5764449985 0.25
 Si3 Si 0.797362499 0.5764449985 0.5
 Si3 Si 0.952637501 0.6735550015 0.25
 Si3 Si 0.952637501 0.6735550015 0.5
 Si3 Si 0.952637501 0.5764449985 0.25
 Si3 Si 0.952637501 0.5764449985 0.5
 Si3 Si 0.797362499 0.6735550015 0.25
 Si3 Si 0.797362499 0.6735550015 0.5
 Si3 Si 0.922362499 0.7014449985 0.25
 Si3 Si 0.922362499 0.7014449985 0.5
 Si3 Si 0.827637501 0.5485550015 0.25
 Si3 Si 0.827637501 0.5485550015 0.5
 Si3 Si 0.827637501 0.7014449985 0.25
 Si3 Si 0.827637501 0.7014449985 0.5
 Si3 Si 0.922362499 0.5485550015 0.25
 Si3 Si 0.922362499 0.5485550015 0.5
 Si4 Si 0.7678549997499999 0.54804499825 0.25
 Si4 Si 0.7678549997499999 0.54804499825 0.5
 Si4 Si 0.9821450002500001 0.70195500175 0.25
 Si4 Si 0.9821450002500001 0.70195500175 0.5
 Si4 Si 0.9821450002500001 0.54804499825 0.25
 Si4 Si 0.9821450002500001 0.54804499825 0.5
 Si4 Si 0.7678549997499999 0.70195500175 0.25
 Si4 Si 0.7678549997499999 0.70195500175 0.5
 Si4 Si 0.8928549997499999 0.67304499825 0.25
 Si4 Si 0.8928549997499999 0.67304499825 0.5
 Si4 Si 0.8571450002500001 0.57695500175 0.25
 Si4 Si 0.8571450002500001 0.57695500175 0.5
 Si4 Si 0.8571450002500001 0.67304499825 0.25
 Si4 Si 0.8571450002500001 0.67304499825 0.5
 Si4 Si 0.8928549997499999 0.57695500175 0.25
 Si4 Si 0.8928549997499999 0.57695500175 0.5
 O1 O 0.7987025007499999 0.5275350007499999 0.32191000125
 O1 O 0.9512974992500001 0.72246499925 0.42808999875
 O1 O 0.9512974992500001 0.72246499925 0.32191000125
 O1 O 0.7987025007499999 0.5275350007499999 0.42808999875
 O1 O 0.9512974992500001 0.5275350007499999 0.42808999875
 O1 O 0.7987025007499999 0.72246499925 0.32191000125
 O1 O 0.7987025007499999 0.72246499925 0.42808999875
 O1 O 0.9512974992500001 0.5275350007499999 0.32191000125
 O1 O 0.9237025007499999 0.65253500075 0.32191000125
 O1 O 0.8262974992500001 0.5974649992500001 0.42808999875
 O1 O 0.8262974992500001 0.5974649992500001 0.32191000125
 O1 O 0.9237025007499999 0.65253500075 0.42808999875
 O1 O 0.8262974992500001 0.65253500075 0.42808999875
 O1 O 0.9237025007499999 0.5974649992500001 0.32191000125
 O1 O 0.9237025007499999 0.5974649992500001 0.42808999875
 O1 O 0.8262974992500001 0.65253500075 0.32191000125
 O2 O 0.8273824974999999 0.53536500025 0.29322750125
 O2 O 0.9226175025 0.71463499975 0.45677249875000003
 O2 O 0.9226175025 0.71463499975 0.29322750125
 O2 O 0.8273824974999999 0.53536500025 0.45677249875000003
 O2 O 0.9226175025 0.53536500025 0.45677249875000003
 O2 O 0.8273824974999999 0.71463499975 0.29322750125
 O2 O 0.8273824974999999 0.71463499975 0.45677249875000003
 O2 O 0.9226175025 0.53536500025 0.29322750125
 O2 O 0.9523824975 0.66036500025 0.29322750125
 O2 O 0.7976175025000001 0.58963499975 0.45677249875000003
 O2 O 0.7976175025000001 0.58963499975 0.29322750125
 O2 O 0.9523824975 0.66036500025 0.45677249875000003
 O2 O 0.7976175025000001 0.66036500025 0.45677249875000003
 O2 O 0.9523824975 0.58963499975 0.29322750125
 O2 O 0.9523824975 0.58963499975 0.45677249875000003
 O2 O 0.7976175025000001 0.66036500025 0.29322750125
 O3 O 0.81933250275 0.5 0.30936750025
 O3 O 0.81933250275 0.75 0.30936750025
 O3 O 0.93066749725 0.5 0.44063249974999996
 O3 O 0.93066749725 0.75 0.44063249974999996
 O3 O 0.93066749725 0.5 0.30936750025
 O3 O 0.93066749725 0.75 0.30936750025
 O3 O 0.81933250275 0.5 0.44063249974999996
 O3 O 0.81933250275 0.75 0.44063249974999996
 O3 O 0.94433250275 0.625 0.30936750025
 O3 O 0.80566749725 0.625 0.44063249974999996
 O3 O 0.80566749725 0.625 0.30936750025
 O3 O 0.94433250275 0.625 0.44063249974999996
 O4 O 0.82323499775 0.52379499925 0.375
 O4 O 0.92676500225 0.72620500075 0.375
 O4 O 0.92676500225 0.52379499925 0.375
 O4 O 0.82323499775 0.72620500075 0.375
 O4 O 0.94823499775 0.64879499925 0.375
 O4 O 0.80176500225 0.60120500075 0.375
 O4 O 0.80176500225 0.64879499925 0.375
 O4 O 0.94823499775 0.60120500075 0.375
 O5 O 0.7781475 0.5 0.3090699985
 O5 O 0.7781475 0.75 0.3090699985
 O5 O 0.9718525 0.5 0.4409300015
 O5 O 0.9718525 0.75 0.4409300015
 O5 O 0.9718525 0.5 0.3090699985
 O5 O 0.9718525 0.75 0.3090699985
 O5 O 0.7781475 0.5 0.4409300015
 O5 O 0.7781475 0.75 0.4409300015
 O5 O 0.9031475 0.625 0.3090699985
 O5 O 0.8468525 0.625 0.4409300015
 O5 O 0.8468525 0.625 0.3090699985
 O5 O 0.9031475 0.625 0.4409300015
 O6 O 0.7741599995 0.5236249995 0.375
 O6 O 0.9758400005 0.7263750005 0.375
 O6 O 0.9758400005 0.5236249995 0.375
 O6 O 0.7741599995 0.7263750005 0.375
 O6 O 0.8991599995 0.6486249995 0.375
 O6 O 0.8508400005 0.6013750005 0.375
 O6 O 0.8508400005 0.6486249995 0.375
 O6 O 0.8991599995 0.6013750005 0.375
 O7 O 0.7698449995000001 0.53517999875 0.29336500175
 O7 O 0.9801550005 0.71482000125 0.45663499825
 O7 O 0.9801550005 0.71482000125 0.29336500175
 O7 O 0.7698449995000001 0.53517999875 0.45663499825
 O7 O 0.9801550005 0.53517999875 0.45663499825
 O7 O 0.7698449995000001 0.71482000125 0.29336500175
 O7 O 0.7698449995000001 0.71482000125 0.45663499825
 O7 O 0.9801550005 0.53517999875 0.29336500175
 O7 O 0.8948449995 0.66017999875 0.29336500175
 O7 O 0.8551550004999999 0.58982000125 0.45663499825
 O7 O 0.8551550004999999 0.58982000125 0.29336500175
 O7 O 0.8948449995 0.66017999875 0.45663499825
 O7 O 0.8551550004999999 0.66017999875 0.45663499825
 O7 O 0.8948449995 0.58982000125 0.29336500175
 O7 O 0.8948449995 0.58982000125 0.45663499825
 O7 O 0.8551550004999999 0.66017999875 0.29336500175
 O8 O 0.8125 0.5625 0.25
 O8 O 0.8125 0.5625 0.5
 O8 O 0.9375 0.6875 0.25
 O8 O 0.9375 0.6875 0.5
 O8 O 0.9375 0.5625 0.25
 O8 O 0.9375 0.5625 0.5
 O8 O 0.8125 0.6875 0.25
 O8 O 0.8125 0.6875 0.5
 O9 O 0.78091249975 0.56469249725 0.25
 O9 O 0.78091249975 0.56469249725 0.5
 O9 O 0.96908750025 0.68530750275 0.25
 O9 O 0.96908750025 0.68530750275 0.5
 O9 O 0.96908750025 0.56469249725 0.25
 O9 O 0.96908750025 0.56469249725 0.5
 O9 O 0.78091249975 0.68530750275 0.25
 O9 O 0.78091249975 0.68530750275 0.5
 O9 O 0.90591249975 0.68969249725 0.25
 O9 O 0.90591249975 0.68969249725 0.5
 O9 O 0.84408750025 0.56030750275 0.25
 O9 O 0.84408750025 0.56030750275 0.5
 O9 O 0.84408750025 0.68969249725 0.25
 O9 O 0.84408750025 0.68969249725 0.5
 O9 O 0.90591249975 0.56030750275 0.25
 O9 O 0.90591249975 0.56030750275 0.5
 O10 O 0.75 0.5565750002500001 0.25
 O10 O 0.75 0.5565750002500001 0.5
 O10 O 1.0 0.5565750002500001 0.25
 O10 O 1.0 0.5565750002500001 0.5
 O10 O 0.75 0.6934249997499999 0.25
 O10 O 0.75 0.6934249997499999 0.5
 O10 O 1.0 0.6934249997499999 0.25
 O10 O 1.0 0.6934249997499999 0.5
 O10 O 0.875 0.6815750002500001 0.25
 O10 O 0.875 0.6815750002500001 0.5
 O10 O 0.875 0.5684249997499999 0.25
 O10 O 0.875 0.5684249997499999 0.5
 O2 O 0.7976175025000001 0.58963499975 0.20677249875
 O2 O 0.7976175025000001 0.58963499975 0.5432275012500001
 O2 O 0.9523824975 0.66036500025 0.20677249875
 O2 O 0.9523824975 0.66036500025 0.5432275012500001
 O2 O 0.9523824975 0.58963499975 0.20677249875
 O2 O 0.9523824975 0.58963499975 0.5432275012500001
 O2 O 0.7976175025000001 0.66036500025 0.20677249875
 O2 O 0.7976175025000001 0.66036500025 0.5432275012500001
 O2 O 0.9226175025 0.71463499975 0.20677249875
 O2 O 0.9226175025 0.71463499975 0.5432275012500001
 O2 O 0.8273824974999999 0.53536500025 0.20677249875
 O2 O 0.8273824974999999 0.53536500025 0.5432275012500001
 O2 O 0.8273824974999999 0.71463499975 0.20677249875
 O2 O 0.8273824974999999 0.71463499975 0.5432275012500001
 O2 O 0.9226175025 0.53536500025 0.20677249875
 O2 O 0.9226175025 0.53536500025 0.5432275012500001
 O7 O 0.7698449995000001 0.53517999875 0.20663499825
 O7 O 0.7698449995000001 0.53517999875 0.54336500175
 O7 O 0.9801550005 0.71482000125 0.20663499825
 O7 O 0.9801550005 0.71482000125 0.54336500175
 O7 O 0.9801550005 0.53517999875 0.20663499825
 O7 O 0.9801550005 0.53517999875 0.54336500175
 O7 O 0.7698449995000001 0.71482000125 0.20663499825
 O7 O 0.7698449995000001 0.71482000125 0.54336500175
 O7 O 0.8948449995 0.66017999875 0.20663499825
 O7 O 0.8948449995 0.66017999875 0.54336500175
 O7 O 0.8551550004999999 0.58982000125 0.20663499825
 O7 O 0.8551550004999999 0.58982000125 0.54336500175
 O7 O 0.8551550004999999 0.66017999875 0.20663499825
 O7 O 0.8551550004999999 0.66017999875 0.54336500175
 O7 O 0.8948449995 0.58982000125 0.20663499825
 O7 O 0.8948449995 0.58982000125 0.54336500175
 Si1 Si 0.0672350005 0.7716099992500001 0.32483500249999997
 Si1 Si 0.1827649995 0.9783900007499999 0.42516499750000003
 Si1 Si 0.1827649995 0.9783900007499999 0.32483500249999997
 Si1 Si 0.0672350005 0.7716099992500001 0.42516499750000003
 Si1 Si 0.1827649995 0.7716099992500001 0.42516499750000003
 Si1 Si 0.0672350005 0.9783900007499999 0.32483500249999997
 Si1 Si 0.0672350005 0.9783900007499999 0.42516499750000003
 Si1 Si 0.1827649995 0.7716099992500001 0.32483500249999997
 Si1 Si 0.1922350005 0.8966099992500001 0.32483500249999997
 Si1 Si 0.0577649995 0.8533900007499999 0.42516499750000003
 Si1 Si 0.0577649995 0.8533900007499999 0.32483500249999997
 Si1 Si 0.1922350005 0.8966099992500001 0.42516499750000003
 Si1 Si 0.0577649995 0.8966099992500001 0.42516499750000003
 Si1 Si 0.1922350005 0.8533900007499999 0.32483500249999997
 Si1 Si 0.1922350005 0.8533900007499999 0.42516499750000003
 Si1 Si 0.0577649995 0.8966099992500001 0.32483500249999997
 Si2 Si 0.03017999975 0.7715750002499999 0.324832499
 Si2 Si 0.21982000025 0.97842499975 0.425167501
 Si2 Si 0.21982000025 0.97842499975 0.324832499
 Si2 Si 0.03017999975 0.7715750002499999 0.425167501
 Si2 Si 0.21982000025 0.7715750002499999 0.425167501
 Si2 Si 0.03017999975 0.97842499975 0.324832499
 Si2 Si 0.03017999975 0.97842499975 0.425167501
 Si2 Si 0.21982000025 0.7715750002499999 0.324832499
 Si2 Si 0.15517999975 0.89657500025 0.324832499
 Si2 Si 0.09482000025 0.85342499975 0.425167501
 Si2 Si 0.09482000025 0.85342499975 0.324832499
 Si2 Si 0.15517999975 0.89657500025 0.425167501
 Si2 Si 0.09482000025 0.89657500025 0.425167501
 Si2 Si 0.15517999975 0.85342499975 0.324832499
 Si2 Si 0.15517999975 0.85342499975 0.425167501
 Si2 Si 0.09482000025 0.89657500025 0.324832499
 Si3 Si 0.047362499 0.8264449985 0.25
 Si3 Si 0.047362499 0.8264449985 0.5
 Si3 Si 0.202637501 0.9235550015 0.25
 Si3 Si 0.202637501 0.9235550015 0.5
 Si3 Si 0.202637501 0.8264449985 0.25
 Si3 Si 0.202637501 0.8264449985 0.5
 Si3 Si 0.047362499 0.9235550015 0.25
 Si3 Si 0.047362499 0.9235550015 0.5
 Si3 Si 0.172362499 0.9514449985 0.25
 Si3 Si 0.172362499 0.9514449985 0.5
 Si3 Si 0.077637501 0.7985550015 0.25
 Si3 Si 0.077637501 0.7985550015 0.5
 Si3 Si 0.077637501 0.9514449985 0.25
 Si3 Si 0.077637501 0.9514449985 0.5
 Si3 Si 0.172362499 0.7985550015 0.25
 Si3 Si 0.172362499 0.7985550015 0.5
 Si4 Si 0.01785499975 0.79804499825 0.25
 Si4 Si 0.01785499975 0.79804499825 0.5
 Si4 Si 0.23214500025 0.95195500175 0.25
 Si4 Si 0.23214500025 0.95195500175 0.5
 Si4 Si 0.23214500025 0.79804499825 0.25
 Si4 Si 0.23214500025 0.79804499825 0.5
 Si4 Si 0.01785499975 0.95195500175 0.25
 Si4 Si 0.01785499975 0.95195500175 0.5
 Si4 Si 0.14285499975 0.92304499825 0.25
 Si4 Si 0.14285499975 0.92304499825 0.5
 Si4 Si 0.10714500025 0.82695500175 0.25
 Si4 Si 0.10714500025 0.82695500175 0.5
 Si4 Si 0.10714500025 0.92304499825 0.25
 Si4 Si 0.10714500025 0.92304499825 0.5
 Si4 Si 0.14285499975 0.82695500175 0.25
 Si4 Si 0.14285499975 0.82695500175 0.5
 O1 O 0.04870250075 0.7775350007499999 0.32191000125
 O1 O 0.20129749925 0.97246499925 0.42808999875
 O1 O 0.20129749925 0.97246499925 0.32191000125
 O1 O 0.04870250075 0.7775350007499999 0.42808999875
 O1 O 0.20129749925 0.7775350007499999 0.42808999875
 O1 O 0.04870250075 0.97246499925 0.32191000125
 O1 O 0.04870250075 0.97246499925 0.42808999875
 O1 O 0.20129749925 0.7775350007499999 0.32191000125
 O1 O 0.17370250075 0.90253500075 0.32191000125
 O1 O 0.07629749925 0.8474649992500001 0.42808999875
 O1 O 0.07629749925 0.8474649992500001 0.32191000125
 O1 O 0.17370250075 0.90253500075 0.42808999875
 O1 O 0.07629749925 0.90253500075 0.42808999875
 O1 O 0.17370250075 0.8474649992500001 0.32191000125
 O1 O 0.17370250075 0.8474649992500001 0.42808999875
 O1 O 0.07629749925 0.90253500075 0.32191000125
 O2 O 0.0773824975 0.78536500025 0.29322750125
 O2 O 0.1726175025 0.96463499975 0.45677249875000003
 O2 O 0.1726175025 0.96463499975 0.29322750125
 O2 O 0.0773824975 0.78536500025 0.45677249875000003
 O2 O 0.1726175025 0.78536500025 0.45677249875000003
 O2 O 0.0773824975 0.96463499975 0.29322750125
 O2 O 0.0773824975 0.96463499975 0.45677249875000003
 O2 O 0.1726175025 0.78536500025 0.29322750125
 O2 O 0.2023824975 0.91036500025 0.29322750125
 O2 O 0.0476175025 0.83963499975 0.45677249875000003
 O2 O 0.0476175025 0.83963499975 0.29322750125
 O2 O 0.2023824975 0.91036500025 0.45677249875000003
 O2 O 0.0476175025 0.91036500025 0.45677249875000003
 O2 O 0.2023824975 0.83963499975 0.29322750125
 O2 O 0.2023824975 0.83963499975 0.45677249875000003
 O2 O 0.0476175025 0.91036500025 0.29322750125
 O3 O 0.06933250275 0.75 0.30936750025
 O3 O 0.06933250275 1.0 0.30936750025
 O3 O 0.18066749725 0.75 0.44063249974999996
 O3 O 0.18066749725 1.0 0.44063249974999996
 O3 O 0.18066749725 0.75 0.30936750025
 O3 O 0.18066749725 1.0 0.30936750025
 O3 O 0.06933250275 0.75 0.44063249974999996
 O3 O 0.06933250275 1.0 0.44063249974999996
 O3 O 0.19433250275 0.875 0.30936750025
 O3 O 0.05566749725 0.875 0.44063249974999996
 O3 O 0.05566749725 0.875 0.30936750025
 O3 O 0.19433250275 0.875 0.44063249974999996
 O4 O 0.07323499775 0.77379499925 0.375
 O4 O 0.17676500225 0.97620500075 0.375
 O4 O 0.17676500225 0.77379499925 0.375
 O4 O 0.07323499775 0.97620500075 0.375
 O4 O 0.19823499775 0.89879499925 0.375
 O4 O 0.05176500225 0.85120500075 0.375
 O4 O 0.05176500225 0.89879499925 0.375
 O4 O 0.19823499775 0.85120500075 0.375
 O5 O 0.0281475 0.75 0.3090699985
 O5 O 0.0281475 1.0 0.3090699985
 O5 O 0.2218525 0.75 0.4409300015
 O5 O 0.2218525 1.0 0.4409300015
 O5 O 0.2218525 0.75 0.3090699985
 O5 O 0.2218525 1.0 0.3090699985
 O5 O 0.0281475 0.75 0.4409300015
 O5 O 0.0281475 1.0 0.4409300015
 O5 O 0.1531475 0.875 0.3090699985
 O5 O 0.0968525 0.875 0.4409300015
 O5 O 0.0968525 0.875 0.3090699985
 O5 O 0.1531475 0.875 0.4409300015
 O6 O 0.0241599995 0.7736249995 0.375
 O6 O 0.2258400005 0.9763750005 0.375
 O6 O 0.2258400005 0.7736249995 0.375
 O6 O 0.0241599995 0.9763750005 0.375
 O6 O 0.1491599995 0.8986249995 0.375
 O6 O 0.1008400005 0.8513750005 0.375
 O6 O 0.1008400005 0.8986249995 0.375
 O6 O 0.1491599995 0.8513750005 0.375
 O7 O 0.0198449995 0.78517999875 0.29336500175
 O7 O 0.2301550005 0.96482000125 0.45663499825
 O7 O 0.2301550005 0.96482000125 0.29336500175
 O7 O 0.0198449995 0.78517999875 0.45663499825
 O7 O 0.2301550005 0.78517999875 0.45663499825
 O7 O 0.0198449995 0.96482000125 0.29336500175
 O7 O 0.0198449995 0.96482000125 0.45663499825
 O7 O 0.2301550005 0.78517999875 0.29336500175
 O7 O 0.1448449995 0.91017999875 0.29336500175
 O7 O 0.1051550005 0.83982000125 0.45663499825
 O7 O 0.1051550005 0.83982000125 0.29336500175
 O7 O 0.1448449995 0.91017999875 0.45663499825
 O7 O 0.1051550005 0.91017999875 0.45663499825
 O7 O 0.1448449995 0.83982000125 0.29336500175
 O7 O 0.1448449995 0.83982000125 0.45663499825
 O7 O 0.1051550005 0.91017999875 0.29336500175
 O8 O 0.0625 0.8125 0.25
 O8 O 0.0625 0.8125 0.5
 O8 O 0.1875 0.9375 0.25
 O8 O 0.1875 0.9375 0.5
 O8 O 0.1875 0.8125 0.25
 O8 O 0.1875 0.8125 0.5
 O8 O 0.0625 0.9375 0.25
 O8 O 0.0625 0.9375 0.5
 O9 O 0.03091249975 0.81469249725 0.25
 O9 O 0.03091249975 0.81469249725 0.5
 O9 O 0.21908750025 0.93530750275 0.25
 O9 O 0.21908750025 0.93530750275 0.5
 O9 O 0.21908750025 0.81469249725 0.25
 O9 O 0.21908750025 0.81469249725 0.5
 O9 O 0.03091249975 0.93530750275 0.25
 O9 O 0.03091249975 0.93530750275 0.5
 O9 O 0.15591249975 0.93969249725 0.25
 O9 O 0.15591249975 0.93969249725 0.5
 O9 O 0.09408750025 0.81030750275 0.25
 O9 O 0.09408750025 0.81030750275 0.5
 O9 O 0.09408750025 0.93969249725 0.25
 O9 O 0.09408750025 0.93969249725 0.5
 O9 O 0.15591249975 0.81030750275 0.25
 O9 O 0.15591249975 0.81030750275 0.5
 O10 O 0.0 0.8065750002500001 0.25
 O10 O 0.0 0.8065750002500001 0.5
 O10 O 0.25 0.8065750002500001 0.25
 O10 O 0.25 0.8065750002500001 0.5
 O10 O 0.0 0.9434249997499999 0.25
 O10 O 0.0 0.9434249997499999 0.5
 O10 O 0.25 0.9434249997499999 0.25
 O10 O 0.25 0.9434249997499999 0.5
 O10 O 0.125 0.9315750002500001 0.25
 O10 O 0.125 0.9315750002500001 0.5
 O10 O 0.125 0.8184249997499999 0.25
 O10 O 0.125 0.8184249997499999 0.5
 O2 O 0.0476175025 0.83963499975 0.20677249875
 O2 O 0.0476175025 0.83963499975 0.5432275012500001
 O2 O 0.2023824975 0.91036500025 0.20677249875
 O2 O 0.2023824975 0.91036500025 0.5432275012500001
 O2 O 0.2023824975 0.83963499975 0.20677249875
 O2 O 0.2023824975 0.83963499975 0.5432275012500001
 O2 O 0.0476175025 0.91036500025 0.20677249875
 O2 O 0.0476175025 0.91036500025 0.5432275012500001
 O2 O 0.1726175025 0.96463499975 0.20677249875
 O2 O 0.1726175025 0.96463499975 0.5432275012500001
 O2 O 0.0773824975 0.78536500025 0.20677249875
 O2 O 0.0773824975 0.78536500025 0.5432275012500001
 O2 O 0.0773824975 0.96463499975 0.20677249875
 O2 O 0.0773824975 0.96463499975 0.5432275012500001
 O2 O 0.1726175025 0.78536500025 0.20677249875
 O2 O 0.1726175025 0.78536500025 0.5432275012500001
 O7 O 0.0198449995 0.78517999875 0.20663499825
 O7 O 0.0198449995 0.78517999875 0.54336500175
 O7 O 0.2301550005 0.96482000125 0.20663499825
 O7 O 0.2301550005 0.96482000125 0.54336500175
 O7 O 0.2301550005 0.78517999875 0.20663499825
 O7 O 0.2301550005 0.78517999875 0.54336500175
 O7 O 0.0198449995 0.96482000125 0.20663499825
 O7 O 0.0198449995 0.96482000125 0.54336500175
 O7 O 0.1448449995 0.91017999875 0.20663499825
 O7 O 0.1448449995 0.91017999875 0.54336500175
 O7 O 0.1051550005 0.83982000125 0.20663499825
 O7 O 0.1051550005 0.83982000125 0.54336500175
 O7 O 0.1051550005 0.91017999875 0.20663499825
 O7 O 0.1051550005 0.91017999875 0.54336500175
 O7 O 0.1448449995 0.83982000125 0.20663499825
 O7 O 0.1448449995 0.83982000125 0.54336500175
 Si1 Si 0.3172350005 0.7716099992500001 0.32483500249999997
 Si1 Si 0.4327649995 0.9783900007499999 0.42516499750000003
 Si1 Si 0.4327649995 0.9783900007499999 0.32483500249999997
 Si1 Si 0.3172350005 0.7716099992500001 0.42516499750000003
 Si1 Si 0.4327649995 0.7716099992500001 0.42516499750000003
 Si1 Si 0.3172350005 0.9783900007499999 0.32483500249999997
 Si1 Si 0.3172350005 0.9783900007499999 0.42516499750000003
 Si1 Si 0.4327649995 0.7716099992500001 0.32483500249999997
 Si1 Si 0.4422350005 0.8966099992500001 0.32483500249999997
 Si1 Si 0.3077649995 0.8533900007499999 0.42516499750000003
 Si1 Si 0.3077649995 0.8533900007499999 0.32483500249999997
 Si1 Si 0.4422350005 0.8966099992500001 0.42516499750000003
 Si1 Si 0.3077649995 0.8966099992500001 0.42516499750000003
 Si1 Si 0.4422350005 0.8533900007499999 0.32483500249999997
 Si1 Si 0.4422350005 0.8533900007499999 0.42516499750000003
 Si1 Si 0.3077649995 0.8966099992500001 0.32483500249999997
 Si2 Si 0.28017999975 0.7715750002499999 0.324832499
 Si2 Si 0.46982000025000004 0.97842499975 0.425167501
 Si2 Si 0.46982000025000004 0.97842499975 0.324832499
 Si2 Si 0.28017999975 0.7715750002499999 0.425167501
 Si2 Si 0.46982000025000004 0.7715750002499999 0.425167501
 Si2 Si 0.28017999975 0.97842499975 0.324832499
 Si2 Si 0.28017999975 0.97842499975 0.425167501
 Si2 Si 0.46982000025000004 0.7715750002499999 0.324832499
 Si2 Si 0.40517999974999996 0.89657500025 0.324832499
 Si2 Si 0.34482000025 0.85342499975 0.425167501
 Si2 Si 0.34482000025 0.85342499975 0.324832499
 Si2 Si 0.40517999974999996 0.89657500025 0.425167501
 Si2 Si 0.34482000025 0.89657500025 0.425167501
 Si2 Si 0.40517999974999996 0.85342499975 0.324832499
 Si2 Si 0.40517999974999996 0.85342499975 0.425167501
 Si2 Si 0.34482000025 0.89657500025 0.324832499
 Si3 Si 0.297362499 0.8264449985 0.25
 Si3 Si 0.297362499 0.8264449985 0.5
 Si3 Si 0.452637501 0.9235550015 0.25
 Si3 Si 0.452637501 0.9235550015 0.5
 Si3 Si 0.452637501 0.8264449985 0.25
 Si3 Si 0.452637501 0.8264449985 0.5
 Si3 Si 0.297362499 0.9235550015 0.25
 Si3 Si 0.297362499 0.9235550015 0.5
 Si3 Si 0.422362499 0.9514449985 0.25
 Si3 Si 0.422362499 0.9514449985 0.5
 Si3 Si 0.327637501 0.7985550015 0.25
 Si3 Si 0.327637501 0.7985550015 0.5
 Si3 Si 0.327637501 0.9514449985 0.25
 Si3 Si 0.327637501 0.9514449985 0.5
 Si3 Si 0.422362499 0.7985550015 0.25
 Si3 Si 0.422362499 0.7985550015 0.5
 Si4 Si 0.26785499975 0.79804499825 0.25
 Si4 Si 0.26785499975 0.79804499825 0.5
 Si4 Si 0.48214500025 0.95195500175 0.25
 Si4 Si 0.48214500025 0.95195500175 0.5
 Si4 Si 0.48214500025 0.79804499825 0.25
 Si4 Si 0.48214500025 0.79804499825 0.5
 Si4 Si 0.26785499975 0.95195500175 0.25
 Si4 Si 0.26785499975 0.95195500175 0.5
 Si4 Si 0.39285499975 0.92304499825 0.25
 Si4 Si 0.39285499975 0.92304499825 0.5
 Si4 Si 0.35714500025 0.82695500175 0.25
 Si4 Si 0.35714500025 0.82695500175 0.5
 Si4 Si 0.35714500025 0.92304499825 0.25
 Si4 Si 0.35714500025 0.92304499825 0.5
 Si4 Si 0.39285499975 0.82695500175 0.25
 Si4 Si 0.39285499975 0.82695500175 0.5
 O1 O 0.29870250075 0.7775350007499999 0.32191000125
 O1 O 0.45129749925 0.97246499925 0.42808999875
 O1 O 0.45129749925 0.97246499925 0.32191000125
 O1 O 0.29870250075 0.7775350007499999 0.42808999875
 O1 O 0.45129749925 0.7775350007499999 0.42808999875
 O1 O 0.29870250075 0.97246499925 0.32191000125
 O1 O 0.29870250075 0.97246499925 0.42808999875
 O1 O 0.45129749925 0.7775350007499999 0.32191000125
 O1 O 0.42370250075 0.90253500075 0.32191000125
 O1 O 0.32629749925 0.8474649992500001 0.42808999875
 O1 O 0.32629749925 0.8474649992500001 0.32191000125
 O1 O 0.42370250075 0.90253500075 0.42808999875
 O1 O 0.32629749925 0.90253500075 0.42808999875
 O1 O 0.42370250075 0.8474649992500001 0.32191000125
 O1 O 0.42370250075 0.8474649992500001 0.42808999875
 O1 O 0.32629749925 0.90253500075 0.32191000125
 O2 O 0.3273824975 0.78536500025 0.29322750125
 O2 O 0.42261750249999996 0.96463499975 0.45677249875000003
 O2 O 0.42261750249999996 0.96463499975 0.29322750125
 O2 O 0.3273824975 0.78536500025 0.45677249875000003
 O2 O 0.42261750249999996 0.78536500025 0.45677249875000003
 O2 O 0.3273824975 0.96463499975 0.29322750125
 O2 O 0.3273824975 0.96463499975 0.45677249875000003
 O2 O 0.42261750249999996 0.78536500025 0.29322750125
 O2 O 0.45238249750000004 0.91036500025 0.29322750125
 O2 O 0.2976175025 0.83963499975 0.45677249875000003
 O2 O 0.2976175025 0.83963499975 0.29322750125
 O2 O 0.45238249750000004 0.91036500025 0.45677249875000003
 O2 O 0.2976175025 0.91036500025 0.45677249875000003
 O2 O 0.45238249750000004 0.83963499975 0.29322750125
 O2 O 0.45238249750000004 0.83963499975 0.45677249875000003
 O2 O 0.2976175025 0.91036500025 0.29322750125
 O3 O 0.31933250275 0.75 0.30936750025
 O3 O 0.31933250275 1.0 0.30936750025
 O3 O 0.43066749725 0.75 0.44063249974999996
 O3 O 0.43066749725 1.0 0.44063249974999996
 O3 O 0.43066749725 0.75 0.30936750025
 O3 O 0.43066749725 1.0 0.30936750025
 O3 O 0.31933250275 0.75 0.44063249974999996
 O3 O 0.31933250275 1.0 0.44063249974999996
 O3 O 0.44433250275 0.875 0.30936750025
 O3 O 0.30566749725 0.875 0.44063249974999996
 O3 O 0.30566749725 0.875 0.30936750025
 O3 O 0.44433250275 0.875 0.44063249974999996
 O4 O 0.32323499775 0.77379499925 0.375
 O4 O 0.42676500225 0.97620500075 0.375
 O4 O 0.42676500225 0.77379499925 0.375
 O4 O 0.32323499775 0.97620500075 0.375
 O4 O 0.44823499775 0.89879499925 0.375
 O4 O 0.30176500225 0.85120500075 0.375
 O4 O 0.30176500225 0.89879499925 0.375
 O4 O 0.44823499775 0.85120500075 0.375
 O5 O 0.2781475 0.75 0.3090699985
 O5 O 0.2781475 1.0 0.3090699985
 O5 O 0.4718525 0.75 0.4409300015
 O5 O 0.4718525 1.0 0.4409300015
 O5 O 0.4718525 0.75 0.3090699985
 O5 O 0.4718525 1.0 0.3090699985
 O5 O 0.2781475 0.75 0.4409300015
 O5 O 0.2781475 1.0 0.4409300015
 O5 O 0.4031475 0.875 0.3090699985
 O5 O 0.3468525 0.875 0.4409300015
 O5 O 0.3468525 0.875 0.3090699985
 O5 O 0.4031475 0.875 0.4409300015
 O6 O 0.27415999950000003 0.7736249995 0.375
 O6 O 0.47584000049999997 0.9763750005 0.375
 O6 O 0.47584000049999997 0.7736249995 0.375
 O6 O 0.27415999950000003 0.9763750005 0.375
 O6 O 0.39915999950000003 0.8986249995 0.375
 O6 O 0.35084000049999997 0.8513750005 0.375
 O6 O 0.35084000049999997 0.8986249995 0.375
 O6 O 0.39915999950000003 0.8513750005 0.375
 O7 O 0.2698449995 0.78517999875 0.29336500175
 O7 O 0.48015500050000004 0.96482000125 0.45663499825
 O7 O 0.48015500050000004 0.96482000125 0.29336500175
 O7 O 0.2698449995 0.78517999875 0.45663499825
 O7 O 0.48015500050000004 0.78517999875 0.45663499825
 O7 O 0.2698449995 0.96482000125 0.29336500175
 O7 O 0.2698449995 0.96482000125 0.45663499825
 O7 O 0.48015500050000004 0.78517999875 0.29336500175
 O7 O 0.39484499949999996 0.91017999875 0.29336500175
 O7 O 0.3551550005 0.83982000125 0.45663499825
 O7 O 0.3551550005 0.83982000125 0.29336500175
 O7 O 0.39484499949999996 0.91017999875 0.45663499825
 O7 O 0.3551550005 0.91017999875 0.45663499825
 O7 O 0.39484499949999996 0.83982000125 0.29336500175
 O7 O 0.39484499949999996 0.83982000125 0.45663499825
 O7 O 0.3551550005 0.91017999875 0.29336500175
 O8 O 0.3125 0.8125 0.25
 O8 O 0.3125 0.8125 0.5
 O8 O 0.4375 0.9375 0.25
 O8 O 0.4375 0.9375 0.5
 O8 O 0.4375 0.8125 0.25
 O8 O 0.4375 0.8125 0.5
 O8 O 0.3125 0.9375 0.25
 O8 O 0.3125 0.9375 0.5
 O9 O 0.28091249975 0.81469249725 0.25
 O9 O 0.28091249975 0.81469249725 0.5
 O9 O 0.46908750025 0.93530750275 0.25
 O9 O 0.46908750025 0.93530750275 0.5
 O9 O 0.46908750025 0.81469249725 0.25
 O9 O 0.46908750025 0.81469249725 0.5
 O9 O 0.28091249975 0.93530750275 0.25
 O9 O 0.28091249975 0.93530750275 0.5
 O9 O 0.40591249975 0.93969249725 0.25
 O9 O 0.40591249975 0.93969249725 0.5
 O9 O 0.34408750025 0.81030750275 0.25
 O9 O 0.34408750025 0.81030750275 0.5
 O9 O 0.34408750025 0.93969249725 0.25
 O9 O 0.34408750025 0.93969249725 0.5
 O9 O 0.40591249975 0.81030750275 0.25
 O9 O 0.40591249975 0.81030750275 0.5
 O10 O 0.25 0.8065750002500001 0.25
 O10 O 0.25 0.8065750002500001 0.5
 O10 O 0.5 0.8065750002500001 0.25
 O10 O 0.5 0.8065750002500001 0.5
 O10 O 0.25 0.9434249997499999 0.25
 O10 O 0.25 0.9434249997499999 0.5
 O10 O 0.5 0.9434249997499999 0.25
 O10 O 0.5 0.9434249997499999 0.5
 O10 O 0.375 0.9315750002500001 0.25
 O10 O 0.375 0.9315750002500001 0.5
 O10 O 0.375 0.8184249997499999 0.25
 O10 O 0.375 0.8184249997499999 0.5
 O2 O 0.2976175025 0.83963499975 0.20677249875
 O2 O 0.2976175025 0.83963499975 0.5432275012500001
 O2 O 0.45238249750000004 0.91036500025 0.20677249875
 O2 O 0.45238249750000004 0.91036500025 0.5432275012500001
 O2 O 0.45238249750000004 0.83963499975 0.20677249875
 O2 O 0.45238249750000004 0.83963499975 0.5432275012500001
 O2 O 0.2976175025 0.91036500025 0.20677249875
 O2 O 0.2976175025 0.91036500025 0.5432275012500001
 O2 O 0.42261750249999996 0.96463499975 0.20677249875
 O2 O 0.42261750249999996 0.96463499975 0.5432275012500001
 O2 O 0.3273824975 0.78536500025 0.20677249875
 O2 O 0.3273824975 0.78536500025 0.5432275012500001
 O2 O 0.3273824975 0.96463499975 0.20677249875
 O2 O 0.3273824975 0.96463499975 0.5432275012500001
 O2 O 0.42261750249999996 0.78536500025 0.20677249875
 O2 O 0.42261750249999996 0.78536500025 0.5432275012500001
 O7 O 0.2698449995 0.78517999875 0.20663499825
 O7 O 0.2698449995 0.78517999875 0.54336500175
 O7 O 0.48015500050000004 0.96482000125 0.20663499825
 O7 O 0.48015500050000004 0.96482000125 0.54336500175
 O7 O 0.48015500050000004 0.78517999875 0.20663499825
 O7 O 0.48015500050000004 0.78517999875 0.54336500175
 O7 O 0.2698449995 0.96482000125 0.20663499825
 O7 O 0.2698449995 0.96482000125 0.54336500175
 O7 O 0.39484499949999996 0.91017999875 0.20663499825
 O7 O 0.39484499949999996 0.91017999875 0.54336500175
 O7 O 0.3551550005 0.83982000125 0.20663499825
 O7 O 0.3551550005 0.83982000125 0.54336500175
 O7 O 0.3551550005 0.91017999875 0.20663499825
 O7 O 0.3551550005 0.91017999875 0.54336500175
 O7 O 0.39484499949999996 0.83982000125 0.20663499825
 O7 O 0.39484499949999996 0.83982000125 0.54336500175
 Si1 Si 0.5672350005 0.7716099992500001 0.32483500249999997
 Si1 Si 0.6827649995 0.9783900007499999 0.42516499750000003
 Si1 Si 0.6827649995 0.9783900007499999 0.32483500249999997
 Si1 Si 0.5672350005 0.7716099992500001 0.42516499750000003
 Si1 Si 0.6827649995 0.7716099992500001 0.42516499750000003
 Si1 Si 0.5672350005 0.9783900007499999 0.32483500249999997
 Si1 Si 0.5672350005 0.9783900007499999 0.42516499750000003
 Si1 Si 0.6827649995 0.7716099992500001 0.32483500249999997
 Si1 Si 0.6922350005 0.8966099992500001 0.32483500249999997
 Si1 Si 0.5577649995 0.8533900007499999 0.42516499750000003
 Si1 Si 0.5577649995 0.8533900007499999 0.32483500249999997
 Si1 Si 0.6922350005 0.8966099992500001 0.42516499750000003
 Si1 Si 0.5577649995 0.8966099992500001 0.42516499750000003
 Si1 Si 0.6922350005 0.8533900007499999 0.32483500249999997
 Si1 Si 0.6922350005 0.8533900007499999 0.42516499750000003
 Si1 Si 0.5577649995 0.8966099992500001 0.32483500249999997
 Si2 Si 0.5301799997500001 0.7715750002499999 0.324832499
 Si2 Si 0.71982000025 0.97842499975 0.425167501
 Si2 Si 0.71982000025 0.97842499975 0.324832499
 Si2 Si 0.5301799997500001 0.7715750002499999 0.425167501
 Si2 Si 0.71982000025 0.7715750002499999 0.425167501
 Si2 Si 0.5301799997500001 0.97842499975 0.324832499
 Si2 Si 0.5301799997500001 0.97842499975 0.425167501
 Si2 Si 0.71982000025 0.7715750002499999 0.324832499
 Si2 Si 0.65517999975 0.89657500025 0.324832499
 Si2 Si 0.5948200002499999 0.85342499975 0.425167501
 Si2 Si 0.5948200002499999 0.85342499975 0.324832499
 Si2 Si 0.65517999975 0.89657500025 0.425167501
 Si2 Si 0.5948200002499999 0.89657500025 0.425167501
 Si2 Si 0.65517999975 0.85342499975 0.324832499
 Si2 Si 0.65517999975 0.85342499975 0.425167501
 Si2 Si 0.5948200002499999 0.89657500025 0.324832499
 Si3 Si 0.547362499 0.8264449985 0.25
 Si3 Si 0.547362499 0.8264449985 0.5
 Si3 Si 0.702637501 0.9235550015 0.25
 Si3 Si 0.702637501 0.9235550015 0.5
 Si3 Si 0.702637501 0.8264449985 0.25
 Si3 Si 0.702637501 0.8264449985 0.5
 Si3 Si 0.547362499 0.9235550015 0.25
 Si3 Si 0.547362499 0.9235550015 0.5
 Si3 Si 0.672362499 0.9514449985 0.25
 Si3 Si 0.672362499 0.9514449985 0.5
 Si3 Si 0.577637501 0.7985550015 0.25
 Si3 Si 0.577637501 0.7985550015 0.5
 Si3 Si 0.577637501 0.9514449985 0.25
 Si3 Si 0.577637501 0.9514449985 0.5
 Si3 Si 0.672362499 0.7985550015 0.25
 Si3 Si 0.672362499 0.7985550015 0.5
 Si4 Si 0.5178549997499999 0.79804499825 0.25
 Si4 Si 0.5178549997499999 0.79804499825 0.5
 Si4 Si 0.7321450002500001 0.95195500175 0.25
 Si4 Si 0.7321450002500001 0.95195500175 0.5
 Si4 Si 0.7321450002500001 0.79804499825 0.25
 Si4 Si 0.7321450002500001 0.79804499825 0.5
 Si4 Si 0.5178549997499999 0.95195500175 0.25
 Si4 Si 0.5178549997499999 0.95195500175 0.5
 Si4 Si 0.6428549997499999 0.92304499825 0.25
 Si4 Si 0.6428549997499999 0.92304499825 0.5
 Si4 Si 0.6071450002500001 0.82695500175 0.25
 Si4 Si 0.6071450002500001 0.82695500175 0.5
 Si4 Si 0.6071450002500001 0.92304499825 0.25
 Si4 Si 0.6071450002500001 0.92304499825 0.5
 Si4 Si 0.6428549997499999 0.82695500175 0.25
 Si4 Si 0.6428549997499999 0.82695500175 0.5
 O1 O 0.5487025007499999 0.7775350007499999 0.32191000125
 O1 O 0.7012974992500001 0.97246499925 0.42808999875
 O1 O 0.7012974992500001 0.97246499925 0.32191000125
 O1 O 0.5487025007499999 0.7775350007499999 0.42808999875
 O1 O 0.7012974992500001 0.7775350007499999 0.42808999875
 O1 O 0.5487025007499999 0.97246499925 0.32191000125
 O1 O 0.5487025007499999 0.97246499925 0.42808999875
 O1 O 0.7012974992500001 0.7775350007499999 0.32191000125
 O1 O 0.6737025007499999 0.90253500075 0.32191000125
 O1 O 0.5762974992500001 0.8474649992500001 0.42808999875
 O1 O 0.5762974992500001 0.8474649992500001 0.32191000125
 O1 O 0.6737025007499999 0.90253500075 0.42808999875
 O1 O 0.5762974992500001 0.90253500075 0.42808999875
 O1 O 0.6737025007499999 0.8474649992500001 0.32191000125
 O1 O 0.6737025007499999 0.8474649992500001 0.42808999875
 O1 O 0.5762974992500001 0.90253500075 0.32191000125
 O2 O 0.5773824974999999 0.78536500025 0.29322750125
 O2 O 0.6726175025 0.96463499975 0.45677249875000003
 O2 O 0.6726175025 0.96463499975 0.29322750125
 O2 O 0.5773824974999999 0.78536500025 0.45677249875000003
 O2 O 0.6726175025 0.78536500025 0.45677249875000003
 O2 O 0.5773824974999999 0.96463499975 0.29322750125
 O2 O 0.5773824974999999 0.96463499975 0.45677249875000003
 O2 O 0.6726175025 0.78536500025 0.29322750125
 O2 O 0.7023824975 0.91036500025 0.29322750125
 O2 O 0.5476175025000001 0.83963499975 0.45677249875000003
 O2 O 0.5476175025000001 0.83963499975 0.29322750125
 O2 O 0.7023824975 0.91036500025 0.45677249875000003
 O2 O 0.5476175025000001 0.91036500025 0.45677249875000003
 O2 O 0.7023824975 0.83963499975 0.29322750125
 O2 O 0.7023824975 0.83963499975 0.45677249875000003
 O2 O 0.5476175025000001 0.91036500025 0.29322750125
 O3 O 0.56933250275 0.75 0.30936750025
 O3 O 0.56933250275 1.0 0.30936750025
 O3 O 0.68066749725 0.75 0.44063249974999996
 O3 O 0.68066749725 1.0 0.44063249974999996
 O3 O 0.68066749725 0.75 0.30936750025
 O3 O 0.68066749725 1.0 0.30936750025
 O3 O 0.56933250275 0.75 0.44063249974999996
 O3 O 0.56933250275 1.0 0.44063249974999996
 O3 O 0.69433250275 0.875 0.30936750025
 O3 O 0.55566749725 0.875 0.44063249974999996
 O3 O 0.55566749725 0.875 0.30936750025
 O3 O 0.69433250275 0.875 0.44063249974999996
 O4 O 0.57323499775 0.77379499925 0.375
 O4 O 0.67676500225 0.97620500075 0.375
 O4 O 0.67676500225 0.77379499925 0.375
 O4 O 0.57323499775 0.97620500075 0.375
 O4 O 0.69823499775 0.89879499925 0.375
 O4 O 0.55176500225 0.85120500075 0.375
 O4 O 0.55176500225 0.89879499925 0.375
 O4 O 0.69823499775 0.85120500075 0.375
 O5 O 0.5281475 0.75 0.3090699985
 O5 O 0.5281475 1.0 0.3090699985
 O5 O 0.7218525 0.75 0.4409300015
 O5 O 0.7218525 1.0 0.4409300015
 O5 O 0.7218525 0.75 0.3090699985
 O5 O 0.7218525 1.0 0.3090699985
 O5 O 0.5281475 0.75 0.4409300015
 O5 O 0.5281475 1.0 0.4409300015
 O5 O 0.6531475 0.875 0.3090699985
 O5 O 0.5968525 0.875 0.4409300015
 O5 O 0.5968525 0.875 0.3090699985
 O5 O 0.6531475 0.875 0.4409300015
 O6 O 0.5241599995 0.7736249995 0.375
 O6 O 0.7258400005 0.9763750005 0.375
 O6 O 0.7258400005 0.7736249995 0.375
 O6 O 0.5241599995 0.9763750005 0.375
 O6 O 0.6491599995 0.8986249995 0.375
 O6 O 0.6008400005 0.8513750005 0.375
 O6 O 0.6008400005 0.8986249995 0.375
 O6 O 0.6491599995 0.8513750005 0.375
 O7 O 0.5198449995000001 0.78517999875 0.29336500175
 O7 O 0.7301550005 0.96482000125 0.45663499825
 O7 O 0.7301550005 0.96482000125 0.29336500175
 O7 O 0.5198449995000001 0.78517999875 0.45663499825
 O7 O 0.7301550005 0.78517999875 0.45663499825
 O7 O 0.5198449995000001 0.96482000125 0.29336500175
 O7 O 0.5198449995000001 0.96482000125 0.45663499825
 O7 O 0.7301550005 0.78517999875 0.29336500175
 O7 O 0.6448449995 0.91017999875 0.29336500175
 O7 O 0.6051550004999999 0.83982000125 0.45663499825
 O7 O 0.6051550004999999 0.83982000125 0.29336500175
 O7 O 0.6448449995 0.91017999875 0.45663499825
 O7 O 0.6051550004999999 0.91017999875 0.45663499825
 O7 O 0.6448449995 0.83982000125 0.29336500175
 O7 O 0.6448449995 0.83982000125 0.45663499825
 O7 O 0.6051550004999999 0.91017999875 0.29336500175
 O8 O 0.5625 0.8125 0.25
 O8 O 0.5625 0.8125 0.5
 O8 O 0.6875 0.9375 0.25
 O8 O 0.6875 0.9375 0.5
 O8 O 0.6875 0.8125 0.25
 O8 O 0.6875 0.8125 0.5
 O8 O 0.5625 0.9375 0.25
 O8 O 0.5625 0.9375 0.5
 O9 O 0.53091249975 0.81469249725 0.25
 O9 O 0.53091249975 0.81469249725 0.5
 O9 O 0.71908750025 0.93530750275 0.25
 O9 O 0.71908750025 0.93530750275 0.5
 O9 O 0.71908750025 0.81469249725 0.25
 O9 O 0.71908750025 0.81469249725 0.5
 O9 O 0.53091249975 0.93530750275 0.25
 O9 O 0.53091249975 0.93530750275 0.5
 O9 O 0.65591249975 0.93969249725 0.25
 O9 O 0.65591249975 0.93969249725 0.5
 O9 O 0.59408750025 0.81030750275 0.25
 O9 O 0.59408750025 0.81030750275 0.5
 O9 O 0.59408750025 0.93969249725 0.25
 O9 O 0.59408750025 0.93969249725 0.5
 O9 O 0.65591249975 0.81030750275 0.25
 O9 O 0.65591249975 0.81030750275 0.5
 O10 O 0.5 0.8065750002500001 0.25
 O10 O 0.5 0.8065750002500001 0.5
 O10 O 0.75 0.8065750002500001 0.25
 O10 O 0.75 0.8065750002500001 0.5
 O10 O 0.5 0.9434249997499999 0.25
 O10 O 0.5 0.9434249997499999 0.5
 O10 O 0.75 0.9434249997499999 0.25
 O10 O 0.75 0.9434249997499999 0.5
 O10 O 0.625 0.9315750002500001 0.25
 O10 O 0.625 0.9315750002500001 0.5
 O10 O 0.625 0.8184249997499999 0.25
 O10 O 0.625 0.8184249997499999 0.5
 O2 O 0.5476175025000001 0.83963499975 0.20677249875
 O2 O 0.5476175025000001 0.83963499975 0.5432275012500001
 O2 O 0.7023824975 0.91036500025 0.20677249875
 O2 O 0.7023824975 0.91036500025 0.5432275012500001
 O2 O 0.7023824975 0.83963499975 0.20677249875
 O2 O 0.7023824975 0.83963499975 0.5432275012500001
 O2 O 0.5476175025000001 0.91036500025 0.20677249875
 O2 O 0.5476175025000001 0.91036500025 0.5432275012500001
 O2 O 0.6726175025 0.96463499975 0.20677249875
 O2 O 0.6726175025 0.96463499975 0.5432275012500001
 O2 O 0.5773824974999999 0.78536500025 0.20677249875
 O2 O 0.5773824974999999 0.78536500025 0.5432275012500001
 O2 O 0.5773824974999999 0.96463499975 0.20677249875
 O2 O 0.5773824974999999 0.96463499975 0.5432275012500001
 O2 O 0.6726175025 0.78536500025 0.20677249875
 O2 O 0.6726175025 0.78536500025 0.5432275012500001
 O7 O 0.5198449995000001 0.78517999875 0.20663499825
 O7 O 0.5198449995000001 0.78517999875 0.54336500175
 O7 O 0.7301550005 0.96482000125 0.20663499825
 O7 O 0.7301550005 0.96482000125 0.54336500175
 O7 O 0.7301550005 0.78517999875 0.20663499825
 O7 O 0.7301550005 0.78517999875 0.54336500175
 O7 O 0.5198449995000001 0.96482000125 0.20663499825
 O7 O 0.5198449995000001 0.96482000125 0.54336500175
 O7 O 0.6448449995 0.91017999875 0.20663499825
 O7 O 0.6448449995 0.91017999875 0.54336500175
 O7 O 0.6051550004999999 0.83982000125 0.20663499825
 O7 O 0.6051550004999999 0.83982000125 0.54336500175
 O7 O 0.6051550004999999 0.91017999875 0.20663499825
 O7 O 0.6051550004999999 0.91017999875 0.54336500175
 O7 O 0.6448449995 0.83982000125 0.20663499825
 O7 O 0.6448449995 0.83982000125 0.54336500175
 Si1 Si 0.8172350005 0.7716099992500001 0.32483500249999997
 Si1 Si 0.9327649995 0.9783900007499999 0.42516499750000003
 Si1 Si 0.9327649995 0.9783900007499999 0.32483500249999997
 Si1 Si 0.8172350005 0.7716099992500001 0.42516499750000003
 Si1 Si 0.9327649995 0.7716099992500001 0.42516499750000003
 Si1 Si 0.8172350005 0.9783900007499999 0.32483500249999997
 Si1 Si 0.8172350005 0.9783900007499999 0.42516499750000003
 Si1 Si 0.9327649995 0.7716099992500001 0.32483500249999997
 Si1 Si 0.9422350005 0.8966099992500001 0.32483500249999997
 Si1 Si 0.8077649995 0.8533900007499999 0.42516499750000003
 Si1 Si 0.8077649995 0.8533900007499999 0.32483500249999997
 Si1 Si 0.9422350005 0.8966099992500001 0.42516499750000003
 Si1 Si 0.8077649995 0.8966099992500001 0.42516499750000003
 Si1 Si 0.9422350005 0.8533900007499999 0.32483500249999997
 Si1 Si 0.9422350005 0.8533900007499999 0.42516499750000003
 Si1 Si 0.8077649995 0.8966099992500001 0.32483500249999997
 Si2 Si 0.7801799997500001 0.7715750002499999 0.324832499
 Si2 Si 0.96982000025 0.97842499975 0.425167501
 Si2 Si 0.96982000025 0.97842499975 0.324832499
 Si2 Si 0.7801799997500001 0.7715750002499999 0.425167501
 Si2 Si 0.96982000025 0.7715750002499999 0.425167501
 Si2 Si 0.7801799997500001 0.97842499975 0.324832499
 Si2 Si 0.7801799997500001 0.97842499975 0.425167501
 Si2 Si 0.96982000025 0.7715750002499999 0.324832499
 Si2 Si 0.90517999975 0.89657500025 0.324832499
 Si2 Si 0.8448200002499999 0.85342499975 0.425167501
 Si2 Si 0.8448200002499999 0.85342499975 0.324832499
 Si2 Si 0.90517999975 0.89657500025 0.425167501
 Si2 Si 0.8448200002499999 0.89657500025 0.425167501
 Si2 Si 0.90517999975 0.85342499975 0.324832499
 Si2 Si 0.90517999975 0.85342499975 0.425167501
 Si2 Si 0.8448200002499999 0.89657500025 0.324832499
 Si3 Si 0.797362499 0.8264449985 0.25
 Si3 Si 0.797362499 0.8264449985 0.5
 Si3 Si 0.952637501 0.9235550015 0.25
 Si3 Si 0.952637501 0.9235550015 0.5
 Si3 Si 0.952637501 0.8264449985 0.25
 Si3 Si 0.952637501 0.8264449985 0.5
 Si3 Si 0.797362499 0.9235550015 0.25
 Si3 Si 0.797362499 0.9235550015 0.5
 Si3 Si 0.922362499 0.9514449985 0.25
 Si3 Si 0.922362499 0.9514449985 0.5
 Si3 Si 0.827637501 0.7985550015 0.25
 Si3 Si 0.827637501 0.7985550015 0.5
 Si3 Si 0.827637501 0.9514449985 0.25
 Si3 Si 0.827637501 0.9514449985 0.5
 Si3 Si 0.922362499 0.7985550015 0.25
 Si3 Si 0.922362499 0.7985550015 0.5
 Si4 Si 0.7678549997499999 0.79804499825 0.25
 Si4 Si 0.7678549997499999 0.79804499825 0.5
 Si4 Si 0.9821450002500001 0.95195500175 0.25
 Si4 Si 0.9821450002500001 0.95195500175 0.5
 Si4 Si 0.9821450002500001 0.79804499825 0.25
 Si4 Si 0.9821450002500001 0.79804499825 0.5
 Si4 Si 0.7678549997499999 0.95195500175 0.25
 Si4 Si 0.7678549997499999 0.95195500175 0.5
 Si4 Si 0.8928549997499999 0.92304499825 0.25
 Si4 Si 0.8928549997499999 0.92304499825 0.5
 Si4 Si 0.8571450002500001 0.82695500175 0.25
 Si4 Si 0.8571450002500001 0.82695500175 0.5
 Si4 Si 0.8571450002500001 0.92304499825 0.25
 Si4 Si 0.8571450002500001 0.92304499825 0.5
 Si4 Si 0.8928549997499999 0.82695500175 0.25
 Si4 Si 0.8928549997499999 0.82695500175 0.5
 O1 O 0.7987025007499999 0.7775350007499999 0.32191000125
 O1 O 0.9512974992500001 0.97246499925 0.42808999875
 O1 O 0.9512974992500001 0.97246499925 0.32191000125
 O1 O 0.7987025007499999 0.7775350007499999 0.42808999875
 O1 O 0.9512974992500001 0.7775350007499999 0.42808999875
 O1 O 0.7987025007499999 0.97246499925 0.32191000125
 O1 O 0.7987025007499999 0.97246499925 0.42808999875
 O1 O 0.9512974992500001 0.7775350007499999 0.32191000125
 O1 O 0.9237025007499999 0.90253500075 0.32191000125
 O1 O 0.8262974992500001 0.8474649992500001 0.42808999875
 O1 O 0.8262974992500001 0.8474649992500001 0.32191000125
 O1 O 0.9237025007499999 0.90253500075 0.42808999875
 O1 O 0.8262974992500001 0.90253500075 0.42808999875
 O1 O 0.9237025007499999 0.8474649992500001 0.32191000125
 O1 O 0.9237025007499999 0.8474649992500001 0.42808999875
 O1 O 0.8262974992500001 0.90253500075 0.32191000125
 O2 O 0.8273824974999999 0.78536500025 0.29322750125
 O2 O 0.9226175025 0.96463499975 0.45677249875000003
 O2 O 0.9226175025 0.96463499975 0.29322750125
 O2 O 0.8273824974999999 0.78536500025 0.45677249875000003
 O2 O 0.9226175025 0.78536500025 0.45677249875000003
 O2 O 0.8273824974999999 0.96463499975 0.29322750125
 O2 O 0.8273824974999999 0.96463499975 0.45677249875000003
 O2 O 0.9226175025 0.78536500025 0.29322750125
 O2 O 0.9523824975 0.91036500025 0.29322750125
 O2 O 0.7976175025000001 0.83963499975 0.45677249875000003
 O2 O 0.7976175025000001 0.83963499975 0.29322750125
 O2 O 0.9523824975 0.91036500025 0.45677249875000003
 O2 O 0.7976175025000001 0.91036500025 0.45677249875000003
 O2 O 0.9523824975 0.83963499975 0.29322750125
 O2 O 0.9523824975 0.83963499975 0.45677249875000003
 O2 O 0.7976175025000001 0.91036500025 0.29322750125
 O3 O 0.81933250275 0.75 0.30936750025
 O3 O 0.81933250275 1.0 0.30936750025
 O3 O 0.93066749725 0.75 0.44063249974999996
 O3 O 0.93066749725 1.0 0.44063249974999996
 O3 O 0.93066749725 0.75 0.30936750025
 O3 O 0.93066749725 1.0 0.30936750025
 O3 O 0.81933250275 0.75 0.44063249974999996
 O3 O 0.81933250275 1.0 0.44063249974999996
 O3 O 0.94433250275 0.875 0.30936750025
 O3 O 0.80566749725 0.875 0.44063249974999996
 O3 O 0.80566749725 0.875 0.30936750025
 O3 O 0.94433250275 0.875 0.44063249974999996
 O4 O 0.82323499775 0.77379499925 0.375
 O4 O 0.92676500225 0.97620500075 0.375
 O4 O 0.92676500225 0.77379499925 0.375
 O4 O 0.82323499775 0.97620500075 0.375
 O4 O 0.94823499775 0.89879499925 0.375
 O4 O 0.80176500225 0.85120500075 0.375
 O4 O 0.80176500225 0.89879499925 0.375
 O4 O 0.94823499775 0.85120500075 0.375
 O5 O 0.7781475 0.75 0.3090699985
 O5 O 0.7781475 1.0 0.3090699985
 O5 O 0.9718525 0.75 0.4409300015
 O5 O 0.9718525 1.0 0.4409300015
 O5 O 0.9718525 0.75 0.3090699985
 O5 O 0.9718525 1.0 0.3090699985
 O5 O 0.7781475 0.75 0.4409300015
 O5 O 0.7781475 1.0 0.4409300015
 O5 O 0.9031475 0.875 0.3090699985
 O5 O 0.8468525 0.875 0.4409300015
 O5 O 0.8468525 0.875 0.3090699985
 O5 O 0.9031475 0.875 0.4409300015
 O6 O 0.7741599995 0.7736249995 0.375
 O6 O 0.9758400005 0.9763750005 0.375
 O6 O 0.9758400005 0.7736249995 0.375
 O6 O 0.7741599995 0.9763750005 0.375
 O6 O 0.8991599995 0.8986249995 0.375
 O6 O 0.8508400005 0.8513750005 0.375
 O6 O 0.8508400005 0.8986249995 0.375
 O6 O 0.8991599995 0.8513750005 0.375
 O7 O 0.7698449995000001 0.78517999875 0.29336500175
 O7 O 0.9801550005 0.96482000125 0.45663499825
 O7 O 0.9801550005 0.96482000125 0.29336500175
 O7 O 0.7698449995000001 0.78517999875 0.45663499825
 O7 O 0.9801550005 0.78517999875 0.45663499825
 O7 O 0.7698449995000001 0.96482000125 0.29336500175
 O7 O 0.7698449995000001 0.96482000125 0.45663499825
 O7 O 0.9801550005 0.78517999875 0.29336500175
 O7 O 0.8948449995 0.91017999875 0.29336500175
 O7 O 0.8551550004999999 0.83982000125 0.45663499825
 O7 O 0.8551550004999999 0.83982000125 0.29336500175
 O7 O 0.8948449995 0.91017999875 0.45663499825
 O7 O 0.8551550004999999 0.91017999875 0.45663499825
 O7 O 0.8948449995 0.83982000125 0.29336500175
 O7 O 0.8948449995 0.83982000125 0.45663499825
 O7 O 0.8551550004999999 0.91017999875 0.29336500175
 O8 O 0.8125 0.8125 0.25
 O8 O 0.8125 0.8125 0.5
 O8 O 0.9375 0.9375 0.25
 O8 O 0.9375 0.9375 0.5
 O8 O 0.9375 0.8125 0.25
 O8 O 0.9375 0.8125 0.5
 O8 O 0.8125 0.9375 0.25
 O8 O 0.8125 0.9375 0.5
 O9 O 0.78091249975 0.81469249725 0.25
 O9 O 0.78091249975 0.81469249725 0.5
 O9 O 0.96908750025 0.93530750275 0.25
 O9 O 0.96908750025 0.93530750275 0.5
 O9 O 0.96908750025 0.81469249725 0.25
 O9 O 0.96908750025 0.81469249725 0.5
 O9 O 0.78091249975 0.93530750275 0.25
 O9 O 0.78091249975 0.93530750275 0.5
 O9 O 0.90591249975 0.93969249725 0.25
 O9 O 0.90591249975 0.93969249725 0.5
 O9 O 0.84408750025 0.81030750275 0.25
 O9 O 0.84408750025 0.81030750275 0.5
 O9 O 0.84408750025 0.93969249725 0.25
 O9 O 0.84408750025 0.93969249725 0.5
 O9 O 0.90591249975 0.81030750275 0.25
 O9 O 0.90591249975 0.81030750275 0.5
 O10 O 0.75 0.8065750002500001 0.25
 O10 O 0.75 0.8065750002500001 0.5
 O10 O 1.0 0.8065750002500001 0.25
 O10 O 1.0 0.8065750002500001 0.5
 O10 O 0.75 0.9434249997499999 0.25
 O10 O 0.75 0.9434249997499999 0.5
 O10 O 1.0 0.9434249997499999 0.25
 O10 O 1.0 0.9434249997499999 0.5
 O10 O 0.875 0.9315750002500001 0.25
 O10 O 0.875 0.9315750002500001 0.5
 O10 O 0.875 0.8184249997499999 0.25
 O10 O 0.875 0.8184249997499999 0.5
 O2 O 0.7976175025000001 0.83963499975 0.20677249875
 O2 O 0.7976175025000001 0.83963499975 0.5432275012500001
 O2 O 0.9523824975 0.91036500025 0.20677249875
 O2 O 0.9523824975 0.91036500025 0.5432275012500001
 O2 O 0.9523824975 0.83963499975 0.20677249875
 O2 O 0.9523824975 0.83963499975 0.5432275012500001
 O2 O 0.7976175025000001 0.91036500025 0.20677249875
 O2 O 0.7976175025000001 0.91036500025 0.5432275012500001
 O2 O 0.9226175025 0.96463499975 0.20677249875
 O2 O 0.9226175025 0.96463499975 0.5432275012500001
 O2 O 0.8273824974999999 0.78536500025 0.20677249875
 O2 O 0.8273824974999999 0.78536500025 0.5432275012500001
 O2 O 0.8273824974999999 0.96463499975 0.20677249875
 O2 O 0.8273824974999999 0.96463499975 0.5432275012500001
 O2 O 0.9226175025 0.78536500025 0.20677249875
 O2 O 0.9226175025 0.78536500025 0.5432275012500001
 O7 O 0.7698449995000001 0.78517999875 0.20663499825
 O7 O 0.7698449995000001 0.78517999875 0.54336500175
 O7 O 0.9801550005 0.96482000125 0.20663499825
 O7 O 0.9801550005 0.96482000125 0.54336500175
 O7 O 0.9801550005 0.78517999875 0.20663499825
 O7 O 0.9801550005 0.78517999875 0.54336500175
 O7 O 0.7698449995000001 0.96482000125 0.20663499825
 O7 O 0.7698449995000001 0.96482000125 0.54336500175
 O7 O 0.8948449995 0.91017999875 0.20663499825
 O7 O 0.8948449995 0.91017999875 0.54336500175
 O7 O 0.8551550004999999 0.83982000125 0.20663499825
 O7 O 0.8551550004999999 0.83982000125 0.54336500175
 O7 O 0.8551550004999999 0.91017999875 0.20663499825
 O7 O 0.8551550004999999 0.91017999875 0.54336500175
 O7 O 0.8948449995 0.83982000125 0.20663499825
 O7 O 0.8948449995 0.83982000125 0.54336500175
 Si1 Si 0.0672350005 0.02160999925 0.5748350025
 Si1 Si 0.1827649995 0.22839000075 0.6751649975
 Si1 Si 0.1827649995 0.22839000075 0.5748350025
 Si1 Si 0.0672350005 0.02160999925 0.6751649975
 Si1 Si 0.1827649995 0.02160999925 0.6751649975
 Si1 Si 0.0672350005 0.22839000075 0.5748350025
 Si1 Si 0.0672350005 0.22839000075 0.6751649975
 Si1 Si 0.1827649995 0.02160999925 0.5748350025
 Si1 Si 0.1922350005 0.14660999925 0.5748350025
 Si1 Si 0.0577649995 0.10339000075 0.6751649975
 Si1 Si 0.0577649995 0.10339000075 0.5748350025
 Si1 Si 0.1922350005 0.14660999925 0.6751649975
 Si1 Si 0.0577649995 0.14660999925 0.6751649975
 Si1 Si 0.1922350005 0.10339000075 0.5748350025
 Si1 Si 0.1922350005 0.10339000075 0.6751649975
 Si1 Si 0.0577649995 0.14660999925 0.5748350025
 Si2 Si 0.03017999975 0.02157500025 0.574832499
 Si2 Si 0.21982000025 0.22842499975 0.675167501
 Si2 Si 0.21982000025 0.22842499975 0.574832499
 Si2 Si 0.03017999975 0.02157500025 0.675167501
 Si2 Si 0.21982000025 0.02157500025 0.675167501
 Si2 Si 0.03017999975 0.22842499975 0.574832499
 Si2 Si 0.03017999975 0.22842499975 0.675167501
 Si2 Si 0.21982000025 0.02157500025 0.574832499
 Si2 Si 0.15517999975 0.14657500025 0.574832499
 Si2 Si 0.09482000025 0.10342499975 0.675167501
 Si2 Si 0.09482000025 0.10342499975 0.574832499
 Si2 Si 0.15517999975 0.14657500025 0.675167501
 Si2 Si 0.09482000025 0.14657500025 0.675167501
 Si2 Si 0.15517999975 0.10342499975 0.574832499
 Si2 Si 0.15517999975 0.10342499975 0.675167501
 Si2 Si 0.09482000025 0.14657500025 0.574832499
 Si3 Si 0.047362499 0.0764449985 0.5
 Si3 Si 0.047362499 0.0764449985 0.75
 Si3 Si 0.202637501 0.1735550015 0.5
 Si3 Si 0.202637501 0.1735550015 0.75
 Si3 Si 0.202637501 0.0764449985 0.5
 Si3 Si 0.202637501 0.0764449985 0.75
 Si3 Si 0.047362499 0.1735550015 0.5
 Si3 Si 0.047362499 0.1735550015 0.75
 Si3 Si 0.172362499 0.2014449985 0.5
 Si3 Si 0.172362499 0.2014449985 0.75
 Si3 Si 0.077637501 0.0485550015 0.5
 Si3 Si 0.077637501 0.0485550015 0.75
 Si3 Si 0.077637501 0.2014449985 0.5
 Si3 Si 0.077637501 0.2014449985 0.75
 Si3 Si 0.172362499 0.0485550015 0.5
 Si3 Si 0.172362499 0.0485550015 0.75
 Si4 Si 0.01785499975 0.04804499825 0.5
 Si4 Si 0.01785499975 0.04804499825 0.75
 Si4 Si 0.23214500025 0.20195500175 0.5
 Si4 Si 0.23214500025 0.20195500175 0.75
 Si4 Si 0.23214500025 0.04804499825 0.5
 Si4 Si 0.23214500025 0.04804499825 0.75
 Si4 Si 0.01785499975 0.20195500175 0.5
 Si4 Si 0.01785499975 0.20195500175 0.75
 Si4 Si 0.14285499975 0.17304499825 0.5
 Si4 Si 0.14285499975 0.17304499825 0.75
 Si4 Si 0.10714500025 0.07695500175 0.5
 Si4 Si 0.10714500025 0.07695500175 0.75
 Si4 Si 0.10714500025 0.17304499825 0.5
 Si4 Si 0.10714500025 0.17304499825 0.75
 Si4 Si 0.14285499975 0.07695500175 0.5
 Si4 Si 0.14285499975 0.07695500175 0.75
 O1 O 0.04870250075 0.02753500075 0.57191000125
 O1 O 0.20129749925 0.22246499925 0.67808999875
 O1 O 0.20129749925 0.22246499925 0.57191000125
 O1 O 0.04870250075 0.02753500075 0.67808999875
 O1 O 0.20129749925 0.02753500075 0.67808999875
 O1 O 0.04870250075 0.22246499925 0.57191000125
 O1 O 0.04870250075 0.22246499925 0.67808999875
 O1 O 0.20129749925 0.02753500075 0.57191000125
 O1 O 0.17370250075 0.15253500075 0.57191000125
 O1 O 0.07629749925 0.09746499925 0.67808999875
 O1 O 0.07629749925 0.09746499925 0.57191000125
 O1 O 0.17370250075 0.15253500075 0.67808999875
 O1 O 0.07629749925 0.15253500075 0.67808999875
 O1 O 0.17370250075 0.09746499925 0.57191000125
 O1 O 0.17370250075 0.09746499925 0.67808999875
 O1 O 0.07629749925 0.15253500075 0.57191000125
 O2 O 0.0773824975 0.03536500025 0.5432275012500001
 O2 O 0.1726175025 0.21463499975 0.70677249875
 O2 O 0.1726175025 0.21463499975 0.5432275012500001
 O2 O 0.0773824975 0.03536500025 0.70677249875
 O2 O 0.1726175025 0.03536500025 0.70677249875
 O2 O 0.0773824975 0.21463499975 0.5432275012500001
 O2 O 0.0773824975 0.21463499975 0.70677249875
 O2 O 0.1726175025 0.03536500025 0.5432275012500001
 O2 O 0.2023824975 0.16036500025 0.5432275012500001
 O2 O 0.0476175025 0.08963499975 0.70677249875
 O2 O 0.0476175025 0.08963499975 0.5432275012500001
 O2 O 0.2023824975 0.16036500025 0.70677249875
 O2 O 0.0476175025 0.16036500025 0.70677249875
 O2 O 0.2023824975 0.08963499975 0.5432275012500001
 O2 O 0.2023824975 0.08963499975 0.70677249875
 O2 O 0.0476175025 0.16036500025 0.5432275012500001
 O3 O 0.06933250275 0.0 0.55936750025
 O3 O 0.06933250275 0.25 0.55936750025
 O3 O 0.18066749725 0.0 0.69063249975
 O3 O 0.18066749725 0.25 0.69063249975
 O3 O 0.18066749725 0.0 0.55936750025
 O3 O 0.18066749725 0.25 0.55936750025
 O3 O 0.06933250275 0.0 0.69063249975
 O3 O 0.06933250275 0.25 0.69063249975
 O3 O 0.19433250275 0.125 0.55936750025
 O3 O 0.05566749725 0.125 0.69063249975
 O3 O 0.05566749725 0.125 0.55936750025
 O3 O 0.19433250275 0.125 0.69063249975
 O4 O 0.07323499775 0.02379499925 0.625
 O4 O 0.17676500225 0.22620500075 0.625
 O4 O 0.17676500225 0.02379499925 0.625
 O4 O 0.07323499775 0.22620500075 0.625
 O4 O 0.19823499775 0.14879499925 0.625
 O4 O 0.05176500225 0.10120500075 0.625
 O4 O 0.05176500225 0.14879499925 0.625
 O4 O 0.19823499775 0.10120500075 0.625
 O5 O 0.0281475 0.0 0.5590699985
 O5 O 0.0281475 0.25 0.5590699985
 O5 O 0.2218525 0.0 0.6909300015
 O5 O 0.2218525 0.25 0.6909300015
 O5 O 0.2218525 0.0 0.5590699985
 O5 O 0.2218525 0.25 0.5590699985
 O5 O 0.0281475 0.0 0.6909300015
 O5 O 0.0281475 0.25 0.6909300015
 O5 O 0.1531475 0.125 0.5590699985
 O5 O 0.0968525 0.125 0.6909300015
 O5 O 0.0968525 0.125 0.5590699985
 O5 O 0.1531475 0.125 0.6909300015
 O6 O 0.0241599995 0.0236249995 0.625
 O6 O 0.2258400005 0.2263750005 0.625
 O6 O 0.2258400005 0.0236249995 0.625
 O6 O 0.0241599995 0.2263750005 0.625
 O6 O 0.1491599995 0.1486249995 0.625
 O6 O 0.1008400005 0.1013750005 0.625
 O6 O 0.1008400005 0.1486249995 0.625
 O6 O 0.1491599995 0.1013750005 0.625
 O7 O 0.0198449995 0.03517999875 0.54336500175
 O7 O 0.2301550005 0.21482000125 0.70663499825
 O7 O 0.2301550005 0.21482000125 0.54336500175
 O7 O 0.0198449995 0.03517999875 0.70663499825
 O7 O 0.2301550005 0.03517999875 0.70663499825
 O7 O 0.0198449995 0.21482000125 0.54336500175
 O7 O 0.0198449995 0.21482000125 0.70663499825
 O7 O 0.2301550005 0.03517999875 0.54336500175
 O7 O 0.1448449995 0.16017999875 0.54336500175
 O7 O 0.1051550005 0.08982000125 0.70663499825
 O7 O 0.1051550005 0.08982000125 0.54336500175
 O7 O 0.1448449995 0.16017999875 0.70663499825
 O7 O 0.1051550005 0.16017999875 0.70663499825
 O7 O 0.1448449995 0.08982000125 0.54336500175
 O7 O 0.1448449995 0.08982000125 0.70663499825
 O7 O 0.1051550005 0.16017999875 0.54336500175
 O8 O 0.0625 0.0625 0.5
 O8 O 0.0625 0.0625 0.75
 O8 O 0.1875 0.1875 0.5
 O8 O 0.1875 0.1875 0.75
 O8 O 0.1875 0.0625 0.5
 O8 O 0.1875 0.0625 0.75
 O8 O 0.0625 0.1875 0.5
 O8 O 0.0625 0.1875 0.75
 O9 O 0.03091249975 0.06469249725 0.5
 O9 O 0.03091249975 0.06469249725 0.75
 O9 O 0.21908750025 0.18530750275 0.5
 O9 O 0.21908750025 0.18530750275 0.75
 O9 O 0.21908750025 0.06469249725 0.5
 O9 O 0.21908750025 0.06469249725 0.75
 O9 O 0.03091249975 0.18530750275 0.5
 O9 O 0.03091249975 0.18530750275 0.75
 O9 O 0.15591249975 0.18969249725 0.5
 O9 O 0.15591249975 0.18969249725 0.75
 O9 O 0.09408750025 0.06030750275 0.5
 O9 O 0.09408750025 0.06030750275 0.75
 O9 O 0.09408750025 0.18969249725 0.5
 O9 O 0.09408750025 0.18969249725 0.75
 O9 O 0.15591249975 0.06030750275 0.5
 O9 O 0.15591249975 0.06030750275 0.75
 O10 O 0.0 0.05657500025 0.5
 O10 O 0.0 0.05657500025 0.75
 O10 O 0.25 0.05657500025 0.5
 O10 O 0.25 0.05657500025 0.75
 O10 O 0.0 0.19342499975 0.5
 O10 O 0.0 0.19342499975 0.75
 O10 O 0.25 0.19342499975 0.5
 O10 O 0.25 0.19342499975 0.75
 O10 O 0.125 0.18157500025 0.5
 O10 O 0.125 0.18157500025 0.75
 O10 O 0.125 0.06842499975 0.5
 O10 O 0.125 0.06842499975 0.75
 O2 O 0.0476175025 0.08963499975 0.45677249875000003
 O2 O 0.0476175025 0.08963499975 0.7932275012500001
 O2 O 0.2023824975 0.16036500025 0.45677249875000003
 O2 O 0.2023824975 0.16036500025 0.7932275012500001
 O2 O 0.2023824975 0.08963499975 0.45677249875000003
 O2 O 0.2023824975 0.08963499975 0.7932275012500001
 O2 O 0.0476175025 0.16036500025 0.45677249875000003
 O2 O 0.0476175025 0.16036500025 0.7932275012500001
 O2 O 0.1726175025 0.21463499975 0.45677249875000003
 O2 O 0.1726175025 0.21463499975 0.7932275012500001
 O2 O 0.0773824975 0.03536500025 0.45677249875000003
 O2 O 0.0773824975 0.03536500025 0.7932275012500001
 O2 O 0.0773824975 0.21463499975 0.45677249875000003
 O2 O 0.0773824975 0.21463499975 0.7932275012500001
 O2 O 0.1726175025 0.03536500025 0.45677249875000003
 O2 O 0.1726175025 0.03536500025 0.7932275012500001
 O7 O 0.0198449995 0.03517999875 0.45663499825
 O7 O 0.0198449995 0.03517999875 0.79336500175
 O7 O 0.2301550005 0.21482000125 0.45663499825
 O7 O 0.2301550005 0.21482000125 0.79336500175
 O7 O 0.2301550005 0.03517999875 0.45663499825
 O7 O 0.2301550005 0.03517999875 0.79336500175
 O7 O 0.0198449995 0.21482000125 0.45663499825
 O7 O 0.0198449995 0.21482000125 0.79336500175
 O7 O 0.1448449995 0.16017999875 0.45663499825
 O7 O 0.1448449995 0.16017999875 0.79336500175
 O7 O 0.1051550005 0.08982000125 0.45663499825
 O7 O 0.1051550005 0.08982000125 0.79336500175
 O7 O 0.1051550005 0.16017999875 0.45663499825
 O7 O 0.1051550005 0.16017999875 0.79336500175
 O7 O 0.1448449995 0.08982000125 0.45663499825
 O7 O 0.1448449995 0.08982000125 0.79336500175
 Si1 Si 0.3172350005 0.02160999925 0.5748350025
 Si1 Si 0.4327649995 0.22839000075 0.6751649975
 Si1 Si 0.4327649995 0.22839000075 0.5748350025
 Si1 Si 0.3172350005 0.02160999925 0.6751649975
 Si1 Si 0.4327649995 0.02160999925 0.6751649975
 Si1 Si 0.3172350005 0.22839000075 0.5748350025
 Si1 Si 0.3172350005 0.22839000075 0.6751649975
 Si1 Si 0.4327649995 0.02160999925 0.5748350025
 Si1 Si 0.4422350005 0.14660999925 0.5748350025
 Si1 Si 0.3077649995 0.10339000075 0.6751649975
 Si1 Si 0.3077649995 0.10339000075 0.5748350025
 Si1 Si 0.4422350005 0.14660999925 0.6751649975
 Si1 Si 0.3077649995 0.14660999925 0.6751649975
 Si1 Si 0.4422350005 0.10339000075 0.5748350025
 Si1 Si 0.4422350005 0.10339000075 0.6751649975
 Si1 Si 0.3077649995 0.14660999925 0.5748350025
 Si2 Si 0.28017999975 0.02157500025 0.574832499
 Si2 Si 0.46982000025000004 0.22842499975 0.675167501
 Si2 Si 0.46982000025000004 0.22842499975 0.574832499
 Si2 Si 0.28017999975 0.02157500025 0.675167501
 Si2 Si 0.46982000025000004 0.02157500025 0.675167501
 Si2 Si 0.28017999975 0.22842499975 0.574832499
 Si2 Si 0.28017999975 0.22842499975 0.675167501
 Si2 Si 0.46982000025000004 0.02157500025 0.574832499
 Si2 Si 0.40517999974999996 0.14657500025 0.574832499
 Si2 Si 0.34482000025 0.10342499975 0.675167501
 Si2 Si 0.34482000025 0.10342499975 0.574832499
 Si2 Si 0.40517999974999996 0.14657500025 0.675167501
 Si2 Si 0.34482000025 0.14657500025 0.675167501
 Si2 Si 0.40517999974999996 0.10342499975 0.574832499
 Si2 Si 0.40517999974999996 0.10342499975 0.675167501
 Si2 Si 0.34482000025 0.14657500025 0.574832499
 Si3 Si 0.297362499 0.0764449985 0.5
 Si3 Si 0.297362499 0.0764449985 0.75
 Si3 Si 0.452637501 0.1735550015 0.5
 Si3 Si 0.452637501 0.1735550015 0.75
 Si3 Si 0.452637501 0.0764449985 0.5
 Si3 Si 0.452637501 0.0764449985 0.75
 Si3 Si 0.297362499 0.1735550015 0.5
 Si3 Si 0.297362499 0.1735550015 0.75
 Si3 Si 0.422362499 0.2014449985 0.5
 Si3 Si 0.422362499 0.2014449985 0.75
 Si3 Si 0.327637501 0.0485550015 0.5
 Si3 Si 0.327637501 0.0485550015 0.75
 Si3 Si 0.327637501 0.2014449985 0.5
 Si3 Si 0.327637501 0.2014449985 0.75
 Si3 Si 0.422362499 0.0485550015 0.5
 Si3 Si 0.422362499 0.0485550015 0.75
 Si4 Si 0.26785499975 0.04804499825 0.5
 Si4 Si 0.26785499975 0.04804499825 0.75
 Si4 Si 0.48214500025 0.20195500175 0.5
 Si4 Si 0.48214500025 0.20195500175 0.75
 Si4 Si 0.48214500025 0.04804499825 0.5
 Si4 Si 0.48214500025 0.04804499825 0.75
 Si4 Si 0.26785499975 0.20195500175 0.5
 Si4 Si 0.26785499975 0.20195500175 0.75
 Si4 Si 0.39285499975 0.17304499825 0.5
 Si4 Si 0.39285499975 0.17304499825 0.75
 Si4 Si 0.35714500025 0.07695500175 0.5
 Si4 Si 0.35714500025 0.07695500175 0.75
 Si4 Si 0.35714500025 0.17304499825 0.5
 Si4 Si 0.35714500025 0.17304499825 0.75
 Si4 Si 0.39285499975 0.07695500175 0.5
 Si4 Si 0.39285499975 0.07695500175 0.75
 O1 O 0.29870250075 0.02753500075 0.57191000125
 O1 O 0.45129749925 0.22246499925 0.67808999875
 O1 O 0.45129749925 0.22246499925 0.57191000125
 O1 O 0.29870250075 0.02753500075 0.67808999875
 O1 O 0.45129749925 0.02753500075 0.67808999875
 O1 O 0.29870250075 0.22246499925 0.57191000125
 O1 O 0.29870250075 0.22246499925 0.67808999875
 O1 O 0.45129749925 0.02753500075 0.57191000125
 O1 O 0.42370250075 0.15253500075 0.57191000125
 O1 O 0.32629749925 0.09746499925 0.67808999875
 O1 O 0.32629749925 0.09746499925 0.57191000125
 O1 O 0.42370250075 0.15253500075 0.67808999875
 O1 O 0.32629749925 0.15253500075 0.67808999875
 O1 O 0.42370250075 0.09746499925 0.57191000125
 O1 O 0.42370250075 0.09746499925 0.67808999875
 O1 O 0.32629749925 0.15253500075 0.57191000125
 O2 O 0.3273824975 0.03536500025 0.5432275012500001
 O2 O 0.42261750249999996 0.21463499975 0.70677249875
 O2 O 0.42261750249999996 0.21463499975 0.5432275012500001
 O2 O 0.3273824975 0.03536500025 0.70677249875
 O2 O 0.42261750249999996 0.03536500025 0.70677249875
 O2 O 0.3273824975 0.21463499975 0.5432275012500001
 O2 O 0.3273824975 0.21463499975 0.70677249875
 O2 O 0.42261750249999996 0.03536500025 0.5432275012500001
 O2 O 0.45238249750000004 0.16036500025 0.5432275012500001
 O2 O 0.2976175025 0.08963499975 0.70677249875
 O2 O 0.2976175025 0.08963499975 0.5432275012500001
 O2 O 0.45238249750000004 0.16036500025 0.70677249875
 O2 O 0.2976175025 0.16036500025 0.70677249875
 O2 O 0.45238249750000004 0.08963499975 0.5432275012500001
 O2 O 0.45238249750000004 0.08963499975 0.70677249875
 O2 O 0.2976175025 0.16036500025 0.5432275012500001
 O3 O 0.31933250275 0.0 0.55936750025
 O3 O 0.31933250275 0.25 0.55936750025
 O3 O 0.43066749725 0.0 0.69063249975
 O3 O 0.43066749725 0.25 0.69063249975
 O3 O 0.43066749725 0.0 0.55936750025
 O3 O 0.43066749725 0.25 0.55936750025
 O3 O 0.31933250275 0.0 0.69063249975
 O3 O 0.31933250275 0.25 0.69063249975
 O3 O 0.44433250275 0.125 0.55936750025
 O3 O 0.30566749725 0.125 0.69063249975
 O3 O 0.30566749725 0.125 0.55936750025
 O3 O 0.44433250275 0.125 0.69063249975
 O4 O 0.32323499775 0.02379499925 0.625
 O4 O 0.42676500225 0.22620500075 0.625
 O4 O 0.42676500225 0.02379499925 0.625
 O4 O 0.32323499775 0.22620500075 0.625
 O4 O 0.44823499775 0.14879499925 0.625
 O4 O 0.30176500225 0.10120500075 0.625
 O4 O 0.30176500225 0.14879499925 0.625
 O4 O 0.44823499775 0.10120500075 0.625
 O5 O 0.2781475 0.0 0.5590699985
 O5 O 0.2781475 0.25 0.5590699985
 O5 O 0.4718525 0.0 0.6909300015
 O5 O 0.4718525 0.25 0.6909300015
 O5 O 0.4718525 0.0 0.5590699985
 O5 O 0.4718525 0.25 0.5590699985
 O5 O 0.2781475 0.0 0.6909300015
 O5 O 0.2781475 0.25 0.6909300015
 O5 O 0.4031475 0.125 0.5590699985
 O5 O 0.3468525 0.125 0.6909300015
 O5 O 0.3468525 0.125 0.5590699985
 O5 O 0.4031475 0.125 0.6909300015
 O6 O 0.27415999950000003 0.0236249995 0.625
 O6 O 0.47584000049999997 0.2263750005 0.625
 O6 O 0.47584000049999997 0.0236249995 0.625
 O6 O 0.27415999950000003 0.2263750005 0.625
 O6 O 0.39915999950000003 0.1486249995 0.625
 O6 O 0.35084000049999997 0.1013750005 0.625
 O6 O 0.35084000049999997 0.1486249995 0.625
 O6 O 0.39915999950000003 0.1013750005 0.625
 O7 O 0.2698449995 0.03517999875 0.54336500175
 O7 O 0.48015500050000004 0.21482000125 0.70663499825
 O7 O 0.48015500050000004 0.21482000125 0.54336500175
 O7 O 0.2698449995 0.03517999875 0.70663499825
 O7 O 0.48015500050000004 0.03517999875 0.70663499825
 O7 O 0.2698449995 0.21482000125 0.54336500175
 O7 O 0.2698449995 0.21482000125 0.70663499825
 O7 O 0.48015500050000004 0.03517999875 0.54336500175
 O7 O 0.39484499949999996 0.16017999875 0.54336500175
 O7 O 0.3551550005 0.08982000125 0.70663499825
 O7 O 0.3551550005 0.08982000125 0.54336500175
 O7 O 0.39484499949999996 0.16017999875 0.70663499825
 O7 O 0.3551550005 0.16017999875 0.70663499825
 O7 O 0.39484499949999996 0.08982000125 0.54336500175
 O7 O 0.39484499949999996 0.08982000125 0.70663499825
 O7 O 0.3551550005 0.16017999875 0.54336500175
 O8 O 0.3125 0.0625 0.5
 O8 O 0.3125 0.0625 0.75
 O8 O 0.4375 0.1875 0.5
 O8 O 0.4375 0.1875 0.75
 O8 O 0.4375 0.0625 0.5
 O8 O 0.4375 0.0625 0.75
 O8 O 0.3125 0.1875 0.5
 O8 O 0.3125 0.1875 0.75
 O9 O 0.28091249975 0.06469249725 0.5
 O9 O 0.28091249975 0.06469249725 0.75
 O9 O 0.46908750025 0.18530750275 0.5
 O9 O 0.46908750025 0.18530750275 0.75
 O9 O 0.46908750025 0.06469249725 0.5
 O9 O 0.46908750025 0.06469249725 0.75
 O9 O 0.28091249975 0.18530750275 0.5
 O9 O 0.28091249975 0.18530750275 0.75
 O9 O 0.40591249975 0.18969249725 0.5
 O9 O 0.40591249975 0.18969249725 0.75
 O9 O 0.34408750025 0.06030750275 0.5
 O9 O 0.34408750025 0.06030750275 0.75
 O9 O 0.34408750025 0.18969249725 0.5
 O9 O 0.34408750025 0.18969249725 0.75
 O9 O 0.40591249975 0.06030750275 0.5
 O9 O 0.40591249975 0.06030750275 0.75
 O10 O 0.25 0.05657500025 0.5
 O10 O 0.25 0.05657500025 0.75
 O10 O 0.5 0.05657500025 0.5
 O10 O 0.5 0.05657500025 0.75
 O10 O 0.25 0.19342499975 0.5
 O10 O 0.25 0.19342499975 0.75
 O10 O 0.5 0.19342499975 0.5
 O10 O 0.5 0.19342499975 0.75
 O10 O 0.375 0.18157500025 0.5
 O10 O 0.375 0.18157500025 0.75
 O10 O 0.375 0.06842499975 0.5
 O10 O 0.375 0.06842499975 0.75
 O2 O 0.2976175025 0.08963499975 0.45677249875000003
 O2 O 0.2976175025 0.08963499975 0.7932275012500001
 O2 O 0.45238249750000004 0.16036500025 0.45677249875000003
 O2 O 0.45238249750000004 0.16036500025 0.7932275012500001
 O2 O 0.45238249750000004 0.08963499975 0.45677249875000003
 O2 O 0.45238249750000004 0.08963499975 0.7932275012500001
 O2 O 0.2976175025 0.16036500025 0.45677249875000003
 O2 O 0.2976175025 0.16036500025 0.7932275012500001
 O2 O 0.42261750249999996 0.21463499975 0.45677249875000003
 O2 O 0.42261750249999996 0.21463499975 0.7932275012500001
 O2 O 0.3273824975 0.03536500025 0.45677249875000003
 O2 O 0.3273824975 0.03536500025 0.7932275012500001
 O2 O 0.3273824975 0.21463499975 0.45677249875000003
 O2 O 0.3273824975 0.21463499975 0.7932275012500001
 O2 O 0.42261750249999996 0.03536500025 0.45677249875000003
 O2 O 0.42261750249999996 0.03536500025 0.7932275012500001
 O7 O 0.2698449995 0.03517999875 0.45663499825
 O7 O 0.2698449995 0.03517999875 0.79336500175
 O7 O 0.48015500050000004 0.21482000125 0.45663499825
 O7 O 0.48015500050000004 0.21482000125 0.79336500175
 O7 O 0.48015500050000004 0.03517999875 0.45663499825
 O7 O 0.48015500050000004 0.03517999875 0.79336500175
 O7 O 0.2698449995 0.21482000125 0.45663499825
 O7 O 0.2698449995 0.21482000125 0.79336500175
 O7 O 0.39484499949999996 0.16017999875 0.45663499825
 O7 O 0.39484499949999996 0.16017999875 0.79336500175
 O7 O 0.3551550005 0.08982000125 0.45663499825
 O7 O 0.3551550005 0.08982000125 0.79336500175
 O7 O 0.3551550005 0.16017999875 0.45663499825
 O7 O 0.3551550005 0.16017999875 0.79336500175
 O7 O 0.39484499949999996 0.08982000125 0.45663499825
 O7 O 0.39484499949999996 0.08982000125 0.79336500175
 Si1 Si 0.5672350005 0.02160999925 0.5748350025
 Si1 Si 0.6827649995 0.22839000075 0.6751649975
 Si1 Si 0.6827649995 0.22839000075 0.5748350025
 Si1 Si 0.5672350005 0.02160999925 0.6751649975
 Si1 Si 0.6827649995 0.02160999925 0.6751649975
 Si1 Si 0.5672350005 0.22839000075 0.5748350025
 Si1 Si 0.5672350005 0.22839000075 0.6751649975
 Si1 Si 0.6827649995 0.02160999925 0.5748350025
 Si1 Si 0.6922350005 0.14660999925 0.5748350025
 Si1 Si 0.5577649995 0.10339000075 0.6751649975
 Si1 Si 0.5577649995 0.10339000075 0.5748350025
 Si1 Si 0.6922350005 0.14660999925 0.6751649975
 Si1 Si 0.5577649995 0.14660999925 0.6751649975
 Si1 Si 0.6922350005 0.10339000075 0.5748350025
 Si1 Si 0.6922350005 0.10339000075 0.6751649975
 Si1 Si 0.5577649995 0.14660999925 0.5748350025
 Si2 Si 0.5301799997500001 0.02157500025 0.574832499
 Si2 Si 0.71982000025 0.22842499975 0.675167501
 Si2 Si 0.71982000025 0.22842499975 0.574832499
 Si2 Si 0.5301799997500001 0.02157500025 0.675167501
 Si2 Si 0.71982000025 0.02157500025 0.675167501
 Si2 Si 0.5301799997500001 0.22842499975 0.574832499
 Si2 Si 0.5301799997500001 0.22842499975 0.675167501
 Si2 Si 0.71982000025 0.02157500025 0.574832499
 Si2 Si 0.65517999975 0.14657500025 0.574832499
 Si2 Si 0.5948200002499999 0.10342499975 0.675167501
 Si2 Si 0.5948200002499999 0.10342499975 0.574832499
 Si2 Si 0.65517999975 0.14657500025 0.675167501
 Si2 Si 0.5948200002499999 0.14657500025 0.675167501
 Si2 Si 0.65517999975 0.10342499975 0.574832499
 Si2 Si 0.65517999975 0.10342499975 0.675167501
 Si2 Si 0.5948200002499999 0.14657500025 0.574832499
 Si3 Si 0.547362499 0.0764449985 0.5
 Si3 Si 0.547362499 0.0764449985 0.75
 Si3 Si 0.702637501 0.1735550015 0.5
 Si3 Si 0.702637501 0.1735550015 0.75
 Si3 Si 0.702637501 0.0764449985 0.5
 Si3 Si 0.702637501 0.0764449985 0.75
 Si3 Si 0.547362499 0.1735550015 0.5
 Si3 Si 0.547362499 0.1735550015 0.75
 Si3 Si 0.672362499 0.2014449985 0.5
 Si3 Si 0.672362499 0.2014449985 0.75
 Si3 Si 0.577637501 0.0485550015 0.5
 Si3 Si 0.577637501 0.0485550015 0.75
 Si3 Si 0.577637501 0.2014449985 0.5
 Si3 Si 0.577637501 0.2014449985 0.75
 Si3 Si 0.672362499 0.0485550015 0.5
 Si3 Si 0.672362499 0.0485550015 0.75
 Si4 Si 0.5178549997499999 0.04804499825 0.5
 Si4 Si 0.5178549997499999 0.04804499825 0.75
 Si4 Si 0.7321450002500001 0.20195500175 0.5
 Si4 Si 0.7321450002500001 0.20195500175 0.75
 Si4 Si 0.7321450002500001 0.04804499825 0.5
 Si4 Si 0.7321450002500001 0.04804499825 0.75
 Si4 Si 0.5178549997499999 0.20195500175 0.5
 Si4 Si 0.5178549997499999 0.20195500175 0.75
 Si4 Si 0.6428549997499999 0.17304499825 0.5
 Si4 Si 0.6428549997499999 0.17304499825 0.75
 Si4 Si 0.6071450002500001 0.07695500175 0.5
 Si4 Si 0.6071450002500001 0.07695500175 0.75
 Si4 Si 0.6071450002500001 0.17304499825 0.5
 Si4 Si 0.6071450002500001 0.17304499825 0.75
 Si4 Si 0.6428549997499999 0.07695500175 0.5
 Si4 Si 0.6428549997499999 0.07695500175 0.75
 O1 O 0.5487025007499999 0.02753500075 0.57191000125
 O1 O 0.7012974992500001 0.22246499925 0.67808999875
 O1 O 0.7012974992500001 0.22246499925 0.57191000125
 O1 O 0.5487025007499999 0.02753500075 0.67808999875
 O1 O 0.7012974992500001 0.02753500075 0.67808999875
 O1 O 0.5487025007499999 0.22246499925 0.57191000125
 O1 O 0.5487025007499999 0.22246499925 0.67808999875
 O1 O 0.7012974992500001 0.02753500075 0.57191000125
 O1 O 0.6737025007499999 0.15253500075 0.57191000125
 O1 O 0.5762974992500001 0.09746499925 0.67808999875
 O1 O 0.5762974992500001 0.09746499925 0.57191000125
 O1 O 0.6737025007499999 0.15253500075 0.67808999875
 O1 O 0.5762974992500001 0.15253500075 0.67808999875
 O1 O 0.6737025007499999 0.09746499925 0.57191000125
 O1 O 0.6737025007499999 0.09746499925 0.67808999875
 O1 O 0.5762974992500001 0.15253500075 0.57191000125
 O2 O 0.5773824974999999 0.03536500025 0.5432275012500001
 O2 O 0.6726175025 0.21463499975 0.70677249875
 O2 O 0.6726175025 0.21463499975 0.5432275012500001
 O2 O 0.5773824974999999 0.03536500025 0.70677249875
 O2 O 0.6726175025 0.03536500025 0.70677249875
 O2 O 0.5773824974999999 0.21463499975 0.5432275012500001
 O2 O 0.5773824974999999 0.21463499975 0.70677249875
 O2 O 0.6726175025 0.03536500025 0.5432275012500001
 O2 O 0.7023824975 0.16036500025 0.5432275012500001
 O2 O 0.5476175025000001 0.08963499975 0.70677249875
 O2 O 0.5476175025000001 0.08963499975 0.5432275012500001
 O2 O 0.7023824975 0.16036500025 0.70677249875
 O2 O 0.5476175025000001 0.16036500025 0.70677249875
 O2 O 0.7023824975 0.08963499975 0.5432275012500001
 O2 O 0.7023824975 0.08963499975 0.70677249875
 O2 O 0.5476175025000001 0.16036500025 0.5432275012500001
 O3 O 0.56933250275 0.0 0.55936750025
 O3 O 0.56933250275 0.25 0.55936750025
 O3 O 0.68066749725 0.0 0.69063249975
 O3 O 0.68066749725 0.25 0.69063249975
 O3 O 0.68066749725 0.0 0.55936750025
 O3 O 0.68066749725 0.25 0.55936750025
 O3 O 0.56933250275 0.0 0.69063249975
 O3 O 0.56933250275 0.25 0.69063249975
 O3 O 0.69433250275 0.125 0.55936750025
 O3 O 0.55566749725 0.125 0.69063249975
 O3 O 0.55566749725 0.125 0.55936750025
 O3 O 0.69433250275 0.125 0.69063249975
 O4 O 0.57323499775 0.02379499925 0.625
 O4 O 0.67676500225 0.22620500075 0.625
 O4 O 0.67676500225 0.02379499925 0.625
 O4 O 0.57323499775 0.22620500075 0.625
 O4 O 0.69823499775 0.14879499925 0.625
 O4 O 0.55176500225 0.10120500075 0.625
 O4 O 0.55176500225 0.14879499925 0.625
 O4 O 0.69823499775 0.10120500075 0.625
 O5 O 0.5281475 0.0 0.5590699985
 O5 O 0.5281475 0.25 0.5590699985
 O5 O 0.7218525 0.0 0.6909300015
 O5 O 0.7218525 0.25 0.6909300015
 O5 O 0.7218525 0.0 0.5590699985
 O5 O 0.7218525 0.25 0.5590699985
 O5 O 0.5281475 0.0 0.6909300015
 O5 O 0.5281475 0.25 0.6909300015
 O5 O 0.6531475 0.125 0.5590699985
 O5 O 0.5968525 0.125 0.6909300015
 O5 O 0.5968525 0.125 0.5590699985
 O5 O 0.6531475 0.125 0.6909300015
 O6 O 0.5241599995 0.0236249995 0.625
 O6 O 0.7258400005 0.2263750005 0.625
 O6 O 0.7258400005 0.0236249995 0.625
 O6 O 0.5241599995 0.2263750005 0.625
 O6 O 0.6491599995 0.1486249995 0.625
 O6 O 0.6008400005 0.1013750005 0.625
 O6 O 0.6008400005 0.1486249995 0.625
 O6 O 0.6491599995 0.1013750005 0.625
 O7 O 0.5198449995000001 0.03517999875 0.54336500175
 O7 O 0.7301550005 0.21482000125 0.70663499825
 O7 O 0.7301550005 0.21482000125 0.54336500175
 O7 O 0.5198449995000001 0.03517999875 0.70663499825
 O7 O 0.7301550005 0.03517999875 0.70663499825
 O7 O 0.5198449995000001 0.21482000125 0.54336500175
 O7 O 0.5198449995000001 0.21482000125 0.70663499825
 O7 O 0.7301550005 0.03517999875 0.54336500175
 O7 O 0.6448449995 0.16017999875 0.54336500175
 O7 O 0.6051550004999999 0.08982000125 0.70663499825
 O7 O 0.6051550004999999 0.08982000125 0.54336500175
 O7 O 0.6448449995 0.16017999875 0.70663499825
 O7 O 0.6051550004999999 0.16017999875 0.70663499825
 O7 O 0.6448449995 0.08982000125 0.54336500175
 O7 O 0.6448449995 0.08982000125 0.70663499825
 O7 O 0.6051550004999999 0.16017999875 0.54336500175
 O8 O 0.5625 0.0625 0.5
 O8 O 0.5625 0.0625 0.75
 O8 O 0.6875 0.1875 0.5
 O8 O 0.6875 0.1875 0.75
 O8 O 0.6875 0.0625 0.5
 O8 O 0.6875 0.0625 0.75
 O8 O 0.5625 0.1875 0.5
 O8 O 0.5625 0.1875 0.75
 O9 O 0.53091249975 0.06469249725 0.5
 O9 O 0.53091249975 0.06469249725 0.75
 O9 O 0.71908750025 0.18530750275 0.5
 O9 O 0.71908750025 0.18530750275 0.75
 O9 O 0.71908750025 0.06469249725 0.5
 O9 O 0.71908750025 0.06469249725 0.75
 O9 O 0.53091249975 0.18530750275 0.5
 O9 O 0.53091249975 0.18530750275 0.75
 O9 O 0.65591249975 0.18969249725 0.5
 O9 O 0.65591249975 0.18969249725 0.75
 O9 O 0.59408750025 0.06030750275 0.5
 O9 O 0.59408750025 0.06030750275 0.75
 O9 O 0.59408750025 0.18969249725 0.5
 O9 O 0.59408750025 0.18969249725 0.75
 O9 O 0.65591249975 0.06030750275 0.5
 O9 O 0.65591249975 0.06030750275 0.75
 O10 O 0.5 0.05657500025 0.5
 O10 O 0.5 0.05657500025 0.75
 O10 O 0.75 0.05657500025 0.5
 O10 O 0.75 0.05657500025 0.75
 O10 O 0.5 0.19342499975 0.5
 O10 O 0.5 0.19342499975 0.75
 O10 O 0.75 0.19342499975 0.5
 O10 O 0.75 0.19342499975 0.75
 O10 O 0.625 0.18157500025 0.5
 O10 O 0.625 0.18157500025 0.75
 O10 O 0.625 0.06842499975 0.5
 O10 O 0.625 0.06842499975 0.75
 O2 O 0.5476175025000001 0.08963499975 0.45677249875000003
 O2 O 0.5476175025000001 0.08963499975 0.7932275012500001
 O2 O 0.7023824975 0.16036500025 0.45677249875000003
 O2 O 0.7023824975 0.16036500025 0.7932275012500001
 O2 O 0.7023824975 0.08963499975 0.45677249875000003
 O2 O 0.7023824975 0.08963499975 0.7932275012500001
 O2 O 0.5476175025000001 0.16036500025 0.45677249875000003
 O2 O 0.5476175025000001 0.16036500025 0.7932275012500001
 O2 O 0.6726175025 0.21463499975 0.45677249875000003
 O2 O 0.6726175025 0.21463499975 0.7932275012500001
 O2 O 0.5773824974999999 0.03536500025 0.45677249875000003
 O2 O 0.5773824974999999 0.03536500025 0.7932275012500001
 O2 O 0.5773824974999999 0.21463499975 0.45677249875000003
 O2 O 0.5773824974999999 0.21463499975 0.7932275012500001
 O2 O 0.6726175025 0.03536500025 0.45677249875000003
 O2 O 0.6726175025 0.03536500025 0.7932275012500001
 O7 O 0.5198449995000001 0.03517999875 0.45663499825
 O7 O 0.5198449995000001 0.03517999875 0.79336500175
 O7 O 0.7301550005 0.21482000125 0.45663499825
 O7 O 0.7301550005 0.21482000125 0.79336500175
 O7 O 0.7301550005 0.03517999875 0.45663499825
 O7 O 0.7301550005 0.03517999875 0.79336500175
 O7 O 0.5198449995000001 0.21482000125 0.45663499825
 O7 O 0.5198449995000001 0.21482000125 0.79336500175
 O7 O 0.6448449995 0.16017999875 0.45663499825
 O7 O 0.6448449995 0.16017999875 0.79336500175
 O7 O 0.6051550004999999 0.08982000125 0.45663499825
 O7 O 0.6051550004999999 0.08982000125 0.79336500175
 O7 O 0.6051550004999999 0.16017999875 0.45663499825
 O7 O 0.6051550004999999 0.16017999875 0.79336500175
 O7 O 0.6448449995 0.08982000125 0.45663499825
 O7 O 0.6448449995 0.08982000125 0.79336500175
 Si1 Si 0.8172350005 0.02160999925 0.5748350025
 Si1 Si 0.9327649995 0.22839000075 0.6751649975
 Si1 Si 0.9327649995 0.22839000075 0.5748350025
 Si1 Si 0.8172350005 0.02160999925 0.6751649975
 Si1 Si 0.9327649995 0.02160999925 0.6751649975
 Si1 Si 0.8172350005 0.22839000075 0.5748350025
 Si1 Si 0.8172350005 0.22839000075 0.6751649975
 Si1 Si 0.9327649995 0.02160999925 0.5748350025
 Si1 Si 0.9422350005 0.14660999925 0.5748350025
 Si1 Si 0.8077649995 0.10339000075 0.6751649975
 Si1 Si 0.8077649995 0.10339000075 0.5748350025
 Si1 Si 0.9422350005 0.14660999925 0.6751649975
 Si1 Si 0.8077649995 0.14660999925 0.6751649975
 Si1 Si 0.9422350005 0.10339000075 0.5748350025
 Si1 Si 0.9422350005 0.10339000075 0.6751649975
 Si1 Si 0.8077649995 0.14660999925 0.5748350025
 Si2 Si 0.7801799997500001 0.02157500025 0.574832499
 Si2 Si 0.96982000025 0.22842499975 0.675167501
 Si2 Si 0.96982000025 0.22842499975 0.574832499
 Si2 Si 0.7801799997500001 0.02157500025 0.675167501
 Si2 Si 0.96982000025 0.02157500025 0.675167501
 Si2 Si 0.7801799997500001 0.22842499975 0.574832499
 Si2 Si 0.7801799997500001 0.22842499975 0.675167501
 Si2 Si 0.96982000025 0.02157500025 0.574832499
 Si2 Si 0.90517999975 0.14657500025 0.574832499
 Si2 Si 0.8448200002499999 0.10342499975 0.675167501
 Si2 Si 0.8448200002499999 0.10342499975 0.574832499
 Si2 Si 0.90517999975 0.14657500025 0.675167501
 Si2 Si 0.8448200002499999 0.14657500025 0.675167501
 Si2 Si 0.90517999975 0.10342499975 0.574832499
 Si2 Si 0.90517999975 0.10342499975 0.675167501
 Si2 Si 0.8448200002499999 0.14657500025 0.574832499
 Si3 Si 0.797362499 0.0764449985 0.5
 Si3 Si 0.797362499 0.0764449985 0.75
 Si3 Si 0.952637501 0.1735550015 0.5
 Si3 Si 0.952637501 0.1735550015 0.75
 Si3 Si 0.952637501 0.0764449985 0.5
 Si3 Si 0.952637501 0.0764449985 0.75
 Si3 Si 0.797362499 0.1735550015 0.5
 Si3 Si 0.797362499 0.1735550015 0.75
 Si3 Si 0.922362499 0.2014449985 0.5
 Si3 Si 0.922362499 0.2014449985 0.75
 Si3 Si 0.827637501 0.0485550015 0.5
 Si3 Si 0.827637501 0.0485550015 0.75
 Si3 Si 0.827637501 0.2014449985 0.5
 Si3 Si 0.827637501 0.2014449985 0.75
 Si3 Si 0.922362499 0.0485550015 0.5
 Si3 Si 0.922362499 0.0485550015 0.75
 Si4 Si 0.7678549997499999 0.04804499825 0.5
 Si4 Si 0.7678549997499999 0.04804499825 0.75
 Si4 Si 0.9821450002500001 0.20195500175 0.5
 Si4 Si 0.9821450002500001 0.20195500175 0.75
 Si4 Si 0.9821450002500001 0.04804499825 0.5
 Si4 Si 0.9821450002500001 0.04804499825 0.75
 Si4 Si 0.7678549997499999 0.20195500175 0.5
 Si4 Si 0.7678549997499999 0.20195500175 0.75
 Si4 Si 0.8928549997499999 0.17304499825 0.5
 Si4 Si 0.8928549997499999 0.17304499825 0.75
 Si4 Si 0.8571450002500001 0.07695500175 0.5
 Si4 Si 0.8571450002500001 0.07695500175 0.75
 Si4 Si 0.8571450002500001 0.17304499825 0.5
 Si4 Si 0.8571450002500001 0.17304499825 0.75
 Si4 Si 0.8928549997499999 0.07695500175 0.5
 Si4 Si 0.8928549997499999 0.07695500175 0.75
 O1 O 0.7987025007499999 0.02753500075 0.57191000125
 O1 O 0.9512974992500001 0.22246499925 0.67808999875
 O1 O 0.9512974992500001 0.22246499925 0.57191000125
 O1 O 0.7987025007499999 0.02753500075 0.67808999875
 O1 O 0.9512974992500001 0.02753500075 0.67808999875
 O1 O 0.7987025007499999 0.22246499925 0.57191000125
 O1 O 0.7987025007499999 0.22246499925 0.67808999875
 O1 O 0.9512974992500001 0.02753500075 0.57191000125
 O1 O 0.9237025007499999 0.15253500075 0.57191000125
 O1 O 0.8262974992500001 0.09746499925 0.67808999875
 O1 O 0.8262974992500001 0.09746499925 0.57191000125
 O1 O 0.9237025007499999 0.15253500075 0.67808999875
 O1 O 0.8262974992500001 0.15253500075 0.67808999875
 O1 O 0.9237025007499999 0.09746499925 0.57191000125
 O1 O 0.9237025007499999 0.09746499925 0.67808999875
 O1 O 0.8262974992500001 0.15253500075 0.57191000125
 O2 O 0.8273824974999999 0.03536500025 0.5432275012500001
 O2 O 0.9226175025 0.21463499975 0.70677249875
 O2 O 0.9226175025 0.21463499975 0.5432275012500001
 O2 O 0.8273824974999999 0.03536500025 0.70677249875
 O2 O 0.9226175025 0.03536500025 0.70677249875
 O2 O 0.8273824974999999 0.21463499975 0.5432275012500001
 O2 O 0.8273824974999999 0.21463499975 0.70677249875
 O2 O 0.9226175025 0.03536500025 0.5432275012500001
 O2 O 0.9523824975 0.16036500025 0.5432275012500001
 O2 O 0.7976175025000001 0.08963499975 0.70677249875
 O2 O 0.7976175025000001 0.08963499975 0.5432275012500001
 O2 O 0.9523824975 0.16036500025 0.70677249875
 O2 O 0.7976175025000001 0.16036500025 0.70677249875
 O2 O 0.9523824975 0.08963499975 0.5432275012500001
 O2 O 0.9523824975 0.08963499975 0.70677249875
 O2 O 0.7976175025000001 0.16036500025 0.5432275012500001
 O3 O 0.81933250275 0.0 0.55936750025
 O3 O 0.81933250275 0.25 0.55936750025
 O3 O 0.93066749725 0.0 0.69063249975
 O3 O 0.93066749725 0.25 0.69063249975
 O3 O 0.93066749725 0.0 0.55936750025
 O3 O 0.93066749725 0.25 0.55936750025
 O3 O 0.81933250275 0.0 0.69063249975
 O3 O 0.81933250275 0.25 0.69063249975
 O3 O 0.94433250275 0.125 0.55936750025
 O3 O 0.80566749725 0.125 0.69063249975
 O3 O 0.80566749725 0.125 0.55936750025
 O3 O 0.94433250275 0.125 0.69063249975
 O4 O 0.82323499775 0.02379499925 0.625
 O4 O 0.92676500225 0.22620500075 0.625
 O4 O 0.92676500225 0.02379499925 0.625
 O4 O 0.82323499775 0.22620500075 0.625
 O4 O 0.94823499775 0.14879499925 0.625
 O4 O 0.80176500225 0.10120500075 0.625
 O4 O 0.80176500225 0.14879499925 0.625
 O4 O 0.94823499775 0.10120500075 0.625
 O5 O 0.7781475 0.0 0.5590699985
 O5 O 0.7781475 0.25 0.5590699985
 O5 O 0.9718525 0.0 0.6909300015
 O5 O 0.9718525 0.25 0.6909300015
 O5 O 0.9718525 0.0 0.5590699985
 O5 O 0.9718525 0.25 0.5590699985
 O5 O 0.7781475 0.0 0.6909300015
 O5 O 0.7781475 0.25 0.6909300015
 O5 O 0.9031475 0.125 0.5590699985
 O5 O 0.8468525 0.125 0.6909300015
 O5 O 0.8468525 0.125 0.5590699985
 O5 O 0.9031475 0.125 0.6909300015
 O6 O 0.7741599995 0.0236249995 0.625
 O6 O 0.9758400005 0.2263750005 0.625
 O6 O 0.9758400005 0.0236249995 0.625
 O6 O 0.7741599995 0.2263750005 0.625
 O6 O 0.8991599995 0.1486249995 0.625
 O6 O 0.8508400005 0.1013750005 0.625
 O6 O 0.8508400005 0.1486249995 0.625
 O6 O 0.8991599995 0.1013750005 0.625
 O7 O 0.7698449995000001 0.03517999875 0.54336500175
 O7 O 0.9801550005 0.21482000125 0.70663499825
 O7 O 0.9801550005 0.21482000125 0.54336500175
 O7 O 0.7698449995000001 0.03517999875 0.70663499825
 O7 O 0.9801550005 0.03517999875 0.70663499825
 O7 O 0.7698449995000001 0.21482000125 0.54336500175
 O7 O 0.7698449995000001 0.21482000125 0.70663499825
 O7 O 0.9801550005 0.03517999875 0.54336500175
 O7 O 0.8948449995 0.16017999875 0.54336500175
 O7 O 0.8551550004999999 0.08982000125 0.70663499825
 O7 O 0.8551550004999999 0.08982000125 0.54336500175
 O7 O 0.8948449995 0.16017999875 0.70663499825
 O7 O 0.8551550004999999 0.16017999875 0.70663499825
 O7 O 0.8948449995 0.08982000125 0.54336500175
 O7 O 0.8948449995 0.08982000125 0.70663499825
 O7 O 0.8551550004999999 0.16017999875 0.54336500175
 O8 O 0.8125 0.0625 0.5
 O8 O 0.8125 0.0625 0.75
 O8 O 0.9375 0.1875 0.5
 O8 O 0.9375 0.1875 0.75
 O8 O 0.9375 0.0625 0.5
 O8 O 0.9375 0.0625 0.75
 O8 O 0.8125 0.1875 0.5
 O8 O 0.8125 0.1875 0.75
 O9 O 0.78091249975 0.06469249725 0.5
 O9 O 0.78091249975 0.06469249725 0.75
 O9 O 0.96908750025 0.18530750275 0.5
 O9 O 0.96908750025 0.18530750275 0.75
 O9 O 0.96908750025 0.06469249725 0.5
 O9 O 0.96908750025 0.06469249725 0.75
 O9 O 0.78091249975 0.18530750275 0.5
 O9 O 0.78091249975 0.18530750275 0.75
 O9 O 0.90591249975 0.18969249725 0.5
 O9 O 0.90591249975 0.18969249725 0.75
 O9 O 0.84408750025 0.06030750275 0.5
 O9 O 0.84408750025 0.06030750275 0.75
 O9 O 0.84408750025 0.18969249725 0.5
 O9 O 0.84408750025 0.18969249725 0.75
 O9 O 0.90591249975 0.06030750275 0.5
 O9 O 0.90591249975 0.06030750275 0.75
 O10 O 0.75 0.05657500025 0.5
 O10 O 0.75 0.05657500025 0.75
 O10 O 1.0 0.05657500025 0.5
 O10 O 1.0 0.05657500025 0.75
 O10 O 0.75 0.19342499975 0.5
 O10 O 0.75 0.19342499975 0.75
 O10 O 1.0 0.19342499975 0.5
 O10 O 1.0 0.19342499975 0.75
 O10 O 0.875 0.18157500025 0.5
 O10 O 0.875 0.18157500025 0.75
 O10 O 0.875 0.06842499975 0.5
 O10 O 0.875 0.06842499975 0.75
 O2 O 0.7976175025000001 0.08963499975 0.45677249875000003
 O2 O 0.7976175025000001 0.08963499975 0.7932275012500001
 O2 O 0.9523824975 0.16036500025 0.45677249875000003
 O2 O 0.9523824975 0.16036500025 0.7932275012500001
 O2 O 0.9523824975 0.08963499975 0.45677249875000003
 O2 O 0.9523824975 0.08963499975 0.7932275012500001
 O2 O 0.7976175025000001 0.16036500025 0.45677249875000003
 O2 O 0.7976175025000001 0.16036500025 0.7932275012500001
 O2 O 0.9226175025 0.21463499975 0.45677249875000003
 O2 O 0.9226175025 0.21463499975 0.7932275012500001
 O2 O 0.8273824974999999 0.03536500025 0.45677249875000003
 O2 O 0.8273824974999999 0.03536500025 0.7932275012500001
 O2 O 0.8273824974999999 0.21463499975 0.45677249875000003
 O2 O 0.8273824974999999 0.21463499975 0.7932275012500001
 O2 O 0.9226175025 0.03536500025 0.45677249875000003
 O2 O 0.9226175025 0.03536500025 0.7932275012500001
 O7 O 0.7698449995000001 0.03517999875 0.45663499825
 O7 O 0.7698449995000001 0.03517999875 0.79336500175
 O7 O 0.9801550005 0.21482000125 0.45663499825
 O7 O 0.9801550005 0.21482000125 0.79336500175
 O7 O 0.9801550005 0.03517999875 0.45663499825
 O7 O 0.9801550005 0.03517999875 0.79336500175
 O7 O 0.7698449995000001 0.21482000125 0.45663499825
 O7 O 0.7698449995000001 0.21482000125 0.79336500175
 O7 O 0.8948449995 0.16017999875 0.45663499825
 O7 O 0.8948449995 0.16017999875 0.79336500175
 O7 O 0.8551550004999999 0.08982000125 0.45663499825
 O7 O 0.8551550004999999 0.08982000125 0.79336500175
 O7 O 0.8551550004999999 0.16017999875 0.45663499825
 O7 O 0.8551550004999999 0.16017999875 0.79336500175
 O7 O 0.8948449995 0.08982000125 0.45663499825
 O7 O 0.8948449995 0.08982000125 0.79336500175
 Si1 Si 0.0672350005 0.27160999925 0.5748350025
 Si1 Si 0.1827649995 0.47839000075 0.6751649975
 Si1 Si 0.1827649995 0.47839000075 0.5748350025
 Si1 Si 0.0672350005 0.27160999925 0.6751649975
 Si1 Si 0.1827649995 0.27160999925 0.6751649975
 Si1 Si 0.0672350005 0.47839000075 0.5748350025
 Si1 Si 0.0672350005 0.47839000075 0.6751649975
 Si1 Si 0.1827649995 0.27160999925 0.5748350025
 Si1 Si 0.1922350005 0.39660999925 0.5748350025
 Si1 Si 0.0577649995 0.35339000075 0.6751649975
 Si1 Si 0.0577649995 0.35339000075 0.5748350025
 Si1 Si 0.1922350005 0.39660999925 0.6751649975
 Si1 Si 0.0577649995 0.39660999925 0.6751649975
 Si1 Si 0.1922350005 0.35339000075 0.5748350025
 Si1 Si 0.1922350005 0.35339000075 0.6751649975
 Si1 Si 0.0577649995 0.39660999925 0.5748350025
 Si2 Si 0.03017999975 0.27157500025 0.574832499
 Si2 Si 0.21982000025 0.47842499974999997 0.675167501
 Si2 Si 0.21982000025 0.47842499974999997 0.574832499
 Si2 Si 0.03017999975 0.27157500025 0.675167501
 Si2 Si 0.21982000025 0.27157500025 0.675167501
 Si2 Si 0.03017999975 0.47842499974999997 0.574832499
 Si2 Si 0.03017999975 0.47842499974999997 0.675167501
 Si2 Si 0.21982000025 0.27157500025 0.574832499
 Si2 Si 0.15517999975 0.39657500025000003 0.574832499
 Si2 Si 0.09482000025 0.35342499974999997 0.675167501
 Si2 Si 0.09482000025 0.35342499974999997 0.574832499
 Si2 Si 0.15517999975 0.39657500025000003 0.675167501
 Si2 Si 0.09482000025 0.39657500025000003 0.675167501
 Si2 Si 0.15517999975 0.35342499974999997 0.574832499
 Si2 Si 0.15517999975 0.35342499974999997 0.675167501
 Si2 Si 0.09482000025 0.39657500025000003 0.574832499
 Si3 Si 0.047362499 0.32644499849999997 0.5
 Si3 Si 0.047362499 0.32644499849999997 0.75
 Si3 Si 0.202637501 0.42355500150000003 0.5
 Si3 Si 0.202637501 0.42355500150000003 0.75
 Si3 Si 0.202637501 0.32644499849999997 0.5
 Si3 Si 0.202637501 0.32644499849999997 0.75
 Si3 Si 0.047362499 0.42355500150000003 0.5
 Si3 Si 0.047362499 0.42355500150000003 0.75
 Si3 Si 0.172362499 0.45144499849999997 0.5
 Si3 Si 0.172362499 0.45144499849999997 0.75
 Si3 Si 0.077637501 0.29855500150000003 0.5
 Si3 Si 0.077637501 0.29855500150000003 0.75
 Si3 Si 0.077637501 0.45144499849999997 0.5
 Si3 Si 0.077637501 0.45144499849999997 0.75
 Si3 Si 0.172362499 0.29855500150000003 0.5
 Si3 Si 0.172362499 0.29855500150000003 0.75
 Si4 Si 0.01785499975 0.29804499824999997 0.5
 Si4 Si 0.01785499975 0.29804499824999997 0.75
 Si4 Si 0.23214500025 0.45195500175000003 0.5
 Si4 Si 0.23214500025 0.45195500175000003 0.75
 Si4 Si 0.23214500025 0.29804499824999997 0.5
 Si4 Si 0.23214500025 0.29804499824999997 0.75
 Si4 Si 0.01785499975 0.45195500175000003 0.5
 Si4 Si 0.01785499975 0.45195500175000003 0.75
 Si4 Si 0.14285499975 0.42304499824999997 0.5
 Si4 Si 0.14285499975 0.42304499824999997 0.75
 Si4 Si 0.10714500025 0.32695500175000003 0.5
 Si4 Si 0.10714500025 0.32695500175000003 0.75
 Si4 Si 0.10714500025 0.42304499824999997 0.5
 Si4 Si 0.10714500025 0.42304499824999997 0.75
 Si4 Si 0.14285499975 0.32695500175000003 0.5
 Si4 Si 0.14285499975 0.32695500175000003 0.75
 O1 O 0.04870250075 0.27753500075 0.57191000125
 O1 O 0.20129749925 0.47246499924999996 0.67808999875
 O1 O 0.20129749925 0.47246499924999996 0.57191000125
 O1 O 0.04870250075 0.27753500075 0.67808999875
 O1 O 0.20129749925 0.27753500075 0.67808999875
 O1 O 0.04870250075 0.47246499924999996 0.57191000125
 O1 O 0.04870250075 0.47246499924999996 0.67808999875
 O1 O 0.20129749925 0.27753500075 0.57191000125
 O1 O 0.17370250075 0.40253500075000004 0.57191000125
 O1 O 0.07629749925 0.34746499925 0.67808999875
 O1 O 0.07629749925 0.34746499925 0.57191000125
 O1 O 0.17370250075 0.40253500075000004 0.67808999875
 O1 O 0.07629749925 0.40253500075000004 0.67808999875
 O1 O 0.17370250075 0.34746499925 0.57191000125
 O1 O 0.17370250075 0.34746499925 0.67808999875
 O1 O 0.07629749925 0.40253500075000004 0.57191000125
 O2 O 0.0773824975 0.28536500025 0.5432275012500001
 O2 O 0.1726175025 0.46463499975 0.70677249875
 O2 O 0.1726175025 0.46463499975 0.5432275012500001
 O2 O 0.0773824975 0.28536500025 0.70677249875
 O2 O 0.1726175025 0.28536500025 0.70677249875
 O2 O 0.0773824975 0.46463499975 0.5432275012500001
 O2 O 0.0773824975 0.46463499975 0.70677249875
 O2 O 0.1726175025 0.28536500025 0.5432275012500001
 O2 O 0.2023824975 0.41036500025 0.5432275012500001
 O2 O 0.0476175025 0.33963499975 0.70677249875
 O2 O 0.0476175025 0.33963499975 0.5432275012500001
 O2 O 0.2023824975 0.41036500025 0.70677249875
 O2 O 0.0476175025 0.41036500025 0.70677249875
 O2 O 0.2023824975 0.33963499975 0.5432275012500001
 O2 O 0.2023824975 0.33963499975 0.70677249875
 O2 O 0.0476175025 0.41036500025 0.5432275012500001
 O3 O 0.06933250275 0.25 0.55936750025
 O3 O 0.06933250275 0.5 0.55936750025
 O3 O 0.18066749725 0.25 0.69063249975
 O3 O 0.18066749725 0.5 0.69063249975
 O3 O 0.18066749725 0.25 0.55936750025
 O3 O 0.18066749725 0.5 0.55936750025
 O3 O 0.06933250275 0.25 0.69063249975
 O3 O 0.06933250275 0.5 0.69063249975
 O3 O 0.19433250275 0.375 0.55936750025
 O3 O 0.05566749725 0.375 0.69063249975
 O3 O 0.05566749725 0.375 0.55936750025
 O3 O 0.19433250275 0.375 0.69063249975
 O4 O 0.07323499775 0.27379499925 0.625
 O4 O 0.17676500225 0.47620500075 0.625
 O4 O 0.17676500225 0.27379499925 0.625
 O4 O 0.07323499775 0.47620500075 0.625
 O4 O 0.19823499775 0.39879499925 0.625
 O4 O 0.05176500225 0.35120500075 0.625
 O4 O 0.05176500225 0.39879499925 0.625
 O4 O 0.19823499775 0.35120500075 0.625
 O5 O 0.0281475 0.25 0.5590699985
 O5 O 0.0281475 0.5 0.5590699985
 O5 O 0.2218525 0.25 0.6909300015
 O5 O 0.2218525 0.5 0.6909300015
 O5 O 0.2218525 0.25 0.5590699985
 O5 O 0.2218525 0.5 0.5590699985
 O5 O 0.0281475 0.25 0.6909300015
 O5 O 0.0281475 0.5 0.6909300015
 O5 O 0.1531475 0.375 0.5590699985
 O5 O 0.0968525 0.375 0.6909300015
 O5 O 0.0968525 0.375 0.5590699985
 O5 O 0.1531475 0.375 0.6909300015
 O6 O 0.0241599995 0.2736249995 0.625
 O6 O 0.2258400005 0.47637500050000003 0.625
 O6 O 0.2258400005 0.2736249995 0.625
 O6 O 0.0241599995 0.47637500050000003 0.625
 O6 O 0.1491599995 0.39862499949999997 0.625
 O6 O 0.1008400005 0.35137500050000003 0.625
 O6 O 0.1008400005 0.39862499949999997 0.625
 O6 O 0.1491599995 0.35137500050000003 0.625
 O7 O 0.0198449995 0.28517999875 0.54336500175
 O7 O 0.2301550005 0.46482000125 0.70663499825
 O7 O 0.2301550005 0.46482000125 0.54336500175
 O7 O 0.0198449995 0.28517999875 0.70663499825
 O7 O 0.2301550005 0.28517999875 0.70663499825
 O7 O 0.0198449995 0.46482000125 0.54336500175
 O7 O 0.0198449995 0.46482000125 0.70663499825
 O7 O 0.2301550005 0.28517999875 0.54336500175
 O7 O 0.1448449995 0.41017999875 0.54336500175
 O7 O 0.1051550005 0.33982000125 0.70663499825
 O7 O 0.1051550005 0.33982000125 0.54336500175
 O7 O 0.1448449995 0.41017999875 0.70663499825
 O7 O 0.1051550005 0.41017999875 0.70663499825
 O7 O 0.1448449995 0.33982000125 0.54336500175
 O7 O 0.1448449995 0.33982000125 0.70663499825
 O7 O 0.1051550005 0.41017999875 0.54336500175
 O8 O 0.0625 0.3125 0.5
 O8 O 0.0625 0.3125 0.75
 O8 O 0.1875 0.4375 0.5
 O8 O 0.1875 0.4375 0.75
 O8 O 0.1875 0.3125 0.5
 O8 O 0.1875 0.3125 0.75
 O8 O 0.0625 0.4375 0.5
 O8 O 0.0625 0.4375 0.75
 O9 O 0.03091249975 0.31469249725 0.5
 O9 O 0.03091249975 0.31469249725 0.75
 O9 O 0.21908750025 0.43530750274999996 0.5
 O9 O 0.21908750025 0.43530750274999996 0.75
 O9 O 0.21908750025 0.31469249725 0.5
 O9 O 0.21908750025 0.31469249725 0.75
 O9 O 0.03091249975 0.43530750274999996 0.5
 O9 O 0.03091249975 0.43530750274999996 0.75
 O9 O 0.15591249975 0.43969249725000004 0.5
 O9 O 0.15591249975 0.43969249725000004 0.75
 O9 O 0.09408750025 0.31030750275 0.5
 O9 O 0.09408750025 0.31030750275 0.75
 O9 O 0.09408750025 0.43969249725000004 0.5
 O9 O 0.09408750025 0.43969249725000004 0.75
 O9 O 0.15591249975 0.31030750275 0.5
 O9 O 0.15591249975 0.31030750275 0.75
 O10 O 0.0 0.30657500025 0.5
 O10 O 0.0 0.30657500025 0.75
 O10 O 0.25 0.30657500025 0.5
 O10 O 0.25 0.30657500025 0.75
 O10 O 0.0 0.44342499975 0.5
 O10 O 0.0 0.44342499975 0.75
 O10 O 0.25 0.44342499975 0.5
 O10 O 0.25 0.44342499975 0.75
 O10 O 0.125 0.43157500025 0.5
 O10 O 0.125 0.43157500025 0.75
 O10 O 0.125 0.31842499975 0.5
 O10 O 0.125 0.31842499975 0.75
 O2 O 0.0476175025 0.33963499975 0.45677249875000003
 O2 O 0.0476175025 0.33963499975 0.7932275012500001
 O2 O 0.2023824975 0.41036500025 0.45677249875000003
 O2 O 0.2023824975 0.41036500025 0.7932275012500001
 O2 O 0.2023824975 0.33963499975 0.45677249875000003
 O2 O 0.2023824975 0.33963499975 0.7932275012500001
 O2 O 0.0476175025 0.41036500025 0.45677249875000003
 O2 O 0.0476175025 0.41036500025 0.7932275012500001
 O2 O 0.1726175025 0.46463499975 0.45677249875000003
 O2 O 0.1726175025 0.46463499975 0.7932275012500001
 O2 O 0.0773824975 0.28536500025 0.45677249875000003
 O2 O 0.0773824975 0.28536500025 0.7932275012500001
 O2 O 0.0773824975 0.46463499975 0.45677249875000003
 O2 O 0.0773824975 0.46463499975 0.7932275012500001
 O2 O 0.1726175025 0.28536500025 0.45677249875000003
 O2 O 0.1726175025 0.28536500025 0.7932275012500001
 O7 O 0.0198449995 0.28517999875 0.45663499825
 O7 O 0.0198449995 0.28517999875 0.79336500175
 O7 O 0.2301550005 0.46482000125 0.45663499825
 O7 O 0.2301550005 0.46482000125 0.79336500175
 O7 O 0.2301550005 0.28517999875 0.45663499825
 O7 O 0.2301550005 0.28517999875 0.79336500175
 O7 O 0.0198449995 0.46482000125 0.45663499825
 O7 O 0.0198449995 0.46482000125 0.79336500175
 O7 O 0.1448449995 0.41017999875 0.45663499825
 O7 O 0.1448449995 0.41017999875 0.79336500175
 O7 O 0.1051550005 0.33982000125 0.45663499825
 O7 O 0.1051550005 0.33982000125 0.79336500175
 O7 O 0.1051550005 0.41017999875 0.45663499825
 O7 O 0.1051550005 0.41017999875 0.79336500175
 O7 O 0.1448449995 0.33982000125 0.45663499825
 O7 O 0.1448449995 0.33982000125 0.79336500175
 Si1 Si 0.3172350005 0.27160999925 0.5748350025
 Si1 Si 0.4327649995 0.47839000075 0.6751649975
 Si1 Si 0.4327649995 0.47839000075 0.5748350025
 Si1 Si 0.3172350005 0.27160999925 0.6751649975
 Si1 Si 0.4327649995 0.27160999925 0.6751649975
 Si1 Si 0.3172350005 0.47839000075 0.5748350025
 Si1 Si 0.3172350005 0.47839000075 0.6751649975
 Si1 Si 0.4327649995 0.27160999925 0.5748350025
 Si1 Si 0.4422350005 0.39660999925 0.5748350025
 Si1 Si 0.3077649995 0.35339000075 0.6751649975
 Si1 Si 0.3077649995 0.35339000075 0.5748350025
 Si1 Si 0.4422350005 0.39660999925 0.6751649975
 Si1 Si 0.3077649995 0.39660999925 0.6751649975
 Si1 Si 0.4422350005 0.35339000075 0.5748350025
 Si1 Si 0.4422350005 0.35339000075 0.6751649975
 Si1 Si 0.3077649995 0.39660999925 0.5748350025
 Si2 Si 0.28017999975 0.27157500025 0.574832499
 Si2 Si 0.46982000025000004 0.47842499974999997 0.675167501
 Si2 Si 0.46982000025000004 0.47842499974999997 0.574832499
 Si2 Si 0.28017999975 0.27157500025 0.675167501
 Si2 Si 0.46982000025000004 0.27157500025 0.675167501
 Si2 Si 0.28017999975 0.47842499974999997 0.574832499
 Si2 Si 0.28017999975 0.47842499974999997 0.675167501
 Si2 Si 0.46982000025000004 0.27157500025 0.574832499
 Si2 Si 0.40517999974999996 0.39657500025000003 0.574832499
 Si2 Si 0.34482000025 0.35342499974999997 0.675167501
 Si2 Si 0.34482000025 0.35342499974999997 0.574832499
 Si2 Si 0.40517999974999996 0.39657500025000003 0.675167501
 Si2 Si 0.34482000025 0.39657500025000003 0.675167501
 Si2 Si 0.40517999974999996 0.35342499974999997 0.574832499
 Si2 Si 0.40517999974999996 0.35342499974999997 0.675167501
 Si2 Si 0.34482000025 0.39657500025000003 0.574832499
 Si3 Si 0.297362499 0.32644499849999997 0.5
 Si3 Si 0.297362499 0.32644499849999997 0.75
 Si3 Si 0.452637501 0.42355500150000003 0.5
 Si3 Si 0.452637501 0.42355500150000003 0.75
 Si3 Si 0.452637501 0.32644499849999997 0.5
 Si3 Si 0.452637501 0.32644499849999997 0.75
 Si3 Si 0.297362499 0.42355500150000003 0.5
 Si3 Si 0.297362499 0.42355500150000003 0.75
 Si3 Si 0.422362499 0.45144499849999997 0.5
 Si3 Si 0.422362499 0.45144499849999997 0.75
 Si3 Si 0.327637501 0.29855500150000003 0.5
 Si3 Si 0.327637501 0.29855500150000003 0.75
 Si3 Si 0.327637501 0.45144499849999997 0.5
 Si3 Si 0.327637501 0.45144499849999997 0.75
 Si3 Si 0.422362499 0.29855500150000003 0.5
 Si3 Si 0.422362499 0.29855500150000003 0.75
 Si4 Si 0.26785499975 0.29804499824999997 0.5
 Si4 Si 0.26785499975 0.29804499824999997 0.75
 Si4 Si 0.48214500025 0.45195500175000003 0.5
 Si4 Si 0.48214500025 0.45195500175000003 0.75
 Si4 Si 0.48214500025 0.29804499824999997 0.5
 Si4 Si 0.48214500025 0.29804499824999997 0.75
 Si4 Si 0.26785499975 0.45195500175000003 0.5
 Si4 Si 0.26785499975 0.45195500175000003 0.75
 Si4 Si 0.39285499975 0.42304499824999997 0.5
 Si4 Si 0.39285499975 0.42304499824999997 0.75
 Si4 Si 0.35714500025 0.32695500175000003 0.5
 Si4 Si 0.35714500025 0.32695500175000003 0.75
 Si4 Si 0.35714500025 0.42304499824999997 0.5
 Si4 Si 0.35714500025 0.42304499824999997 0.75
 Si4 Si 0.39285499975 0.32695500175000003 0.5
 Si4 Si 0.39285499975 0.32695500175000003 0.75
 O1 O 0.29870250075 0.27753500075 0.57191000125
 O1 O 0.45129749925 0.47246499924999996 0.67808999875
 O1 O 0.45129749925 0.47246499924999996 0.57191000125
 O1 O 0.29870250075 0.27753500075 0.67808999875
 O1 O 0.45129749925 0.27753500075 0.67808999875
 O1 O 0.29870250075 0.47246499924999996 0.57191000125
 O1 O 0.29870250075 0.47246499924999996 0.67808999875
 O1 O 0.45129749925 0.27753500075 0.57191000125
 O1 O 0.42370250075 0.40253500075000004 0.57191000125
 O1 O 0.32629749925 0.34746499925 0.67808999875
 O1 O 0.32629749925 0.34746499925 0.57191000125
 O1 O 0.42370250075 0.40253500075000004 0.67808999875
 O1 O 0.32629749925 0.40253500075000004 0.67808999875
 O1 O 0.42370250075 0.34746499925 0.57191000125
 O1 O 0.42370250075 0.34746499925 0.67808999875
 O1 O 0.32629749925 0.40253500075000004 0.57191000125
 O2 O 0.3273824975 0.28536500025 0.5432275012500001
 O2 O 0.42261750249999996 0.46463499975 0.70677249875
 O2 O 0.42261750249999996 0.46463499975 0.5432275012500001
 O2 O 0.3273824975 0.28536500025 0.70677249875
 O2 O 0.42261750249999996 0.28536500025 0.70677249875
 O2 O 0.3273824975 0.46463499975 0.5432275012500001
 O2 O 0.3273824975 0.46463499975 0.70677249875
 O2 O 0.42261750249999996 0.28536500025 0.5432275012500001
 O2 O 0.45238249750000004 0.41036500025 0.5432275012500001
 O2 O 0.2976175025 0.33963499975 0.70677249875
 O2 O 0.2976175025 0.33963499975 0.5432275012500001
 O2 O 0.45238249750000004 0.41036500025 0.70677249875
 O2 O 0.2976175025 0.41036500025 0.70677249875
 O2 O 0.45238249750000004 0.33963499975 0.5432275012500001
 O2 O 0.45238249750000004 0.33963499975 0.70677249875
 O2 O 0.2976175025 0.41036500025 0.5432275012500001
 O3 O 0.31933250275 0.25 0.55936750025
 O3 O 0.31933250275 0.5 0.55936750025
 O3 O 0.43066749725 0.25 0.69063249975
 O3 O 0.43066749725 0.5 0.69063249975
 O3 O 0.43066749725 0.25 0.55936750025
 O3 O 0.43066749725 0.5 0.55936750025
 O3 O 0.31933250275 0.25 0.69063249975
 O3 O 0.31933250275 0.5 0.69063249975
 O3 O 0.44433250275 0.375 0.55936750025
 O3 O 0.30566749725 0.375 0.69063249975
 O3 O 0.30566749725 0.375 0.55936750025
 O3 O 0.44433250275 0.375 0.69063249975
 O4 O 0.32323499775 0.27379499925 0.625
 O4 O 0.42676500225 0.47620500075 0.625
 O4 O 0.42676500225 0.27379499925 0.625
 O4 O 0.32323499775 0.47620500075 0.625
 O4 O 0.44823499775 0.39879499925 0.625
 O4 O 0.30176500225 0.35120500075 0.625
 O4 O 0.30176500225 0.39879499925 0.625
 O4 O 0.44823499775 0.35120500075 0.625
 O5 O 0.2781475 0.25 0.5590699985
 O5 O 0.2781475 0.5 0.5590699985
 O5 O 0.4718525 0.25 0.6909300015
 O5 O 0.4718525 0.5 0.6909300015
 O5 O 0.4718525 0.25 0.5590699985
 O5 O 0.4718525 0.5 0.5590699985
 O5 O 0.2781475 0.25 0.6909300015
 O5 O 0.2781475 0.5 0.6909300015
 O5 O 0.4031475 0.375 0.5590699985
 O5 O 0.3468525 0.375 0.6909300015
 O5 O 0.3468525 0.375 0.5590699985
 O5 O 0.4031475 0.375 0.6909300015
 O6 O 0.27415999950000003 0.2736249995 0.625
 O6 O 0.47584000049999997 0.47637500050000003 0.625
 O6 O 0.47584000049999997 0.2736249995 0.625
 O6 O 0.27415999950000003 0.47637500050000003 0.625
 O6 O 0.39915999950000003 0.39862499949999997 0.625
 O6 O 0.35084000049999997 0.35137500050000003 0.625
 O6 O 0.35084000049999997 0.39862499949999997 0.625
 O6 O 0.39915999950000003 0.35137500050000003 0.625
 O7 O 0.2698449995 0.28517999875 0.54336500175
 O7 O 0.48015500050000004 0.46482000125 0.70663499825
 O7 O 0.48015500050000004 0.46482000125 0.54336500175
 O7 O 0.2698449995 0.28517999875 0.70663499825
 O7 O 0.48015500050000004 0.28517999875 0.70663499825
 O7 O 0.2698449995 0.46482000125 0.54336500175
 O7 O 0.2698449995 0.46482000125 0.70663499825
 O7 O 0.48015500050000004 0.28517999875 0.54336500175
 O7 O 0.39484499949999996 0.41017999875 0.54336500175
 O7 O 0.3551550005 0.33982000125 0.70663499825
 O7 O 0.3551550005 0.33982000125 0.54336500175
 O7 O 0.39484499949999996 0.41017999875 0.70663499825
 O7 O 0.3551550005 0.41017999875 0.70663499825
 O7 O 0.39484499949999996 0.33982000125 0.54336500175
 O7 O 0.39484499949999996 0.33982000125 0.70663499825
 O7 O 0.3551550005 0.41017999875 0.54336500175
 O8 O 0.3125 0.3125 0.5
 O8 O 0.3125 0.3125 0.75
 O8 O 0.4375 0.4375 0.5
 O8 O 0.4375 0.4375 0.75
 O8 O 0.4375 0.3125 0.5
 O8 O 0.4375 0.3125 0.75
 O8 O 0.3125 0.4375 0.5
 O8 O 0.3125 0.4375 0.75
 O9 O 0.28091249975 0.31469249725 0.5
 O9 O 0.28091249975 0.31469249725 0.75
 O9 O 0.46908750025 0.43530750274999996 0.5
 O9 O 0.46908750025 0.43530750274999996 0.75
 O9 O 0.46908750025 0.31469249725 0.5
 O9 O 0.46908750025 0.31469249725 0.75
 O9 O 0.28091249975 0.43530750274999996 0.5
 O9 O 0.28091249975 0.43530750274999996 0.75
 O9 O 0.40591249975 0.43969249725000004 0.5
 O9 O 0.40591249975 0.43969249725000004 0.75
 O9 O 0.34408750025 0.31030750275 0.5
 O9 O 0.34408750025 0.31030750275 0.75
 O9 O 0.34408750025 0.43969249725000004 0.5
 O9 O 0.34408750025 0.43969249725000004 0.75
 O9 O 0.40591249975 0.31030750275 0.5
 O9 O 0.40591249975 0.31030750275 0.75
 O10 O 0.25 0.30657500025 0.5
 O10 O 0.25 0.30657500025 0.75
 O10 O 0.5 0.30657500025 0.5
 O10 O 0.5 0.30657500025 0.75
 O10 O 0.25 0.44342499975 0.5
 O10 O 0.25 0.44342499975 0.75
 O10 O 0.5 0.44342499975 0.5
 O10 O 0.5 0.44342499975 0.75
 O10 O 0.375 0.43157500025 0.5
 O10 O 0.375 0.43157500025 0.75
 O10 O 0.375 0.31842499975 0.5
 O10 O 0.375 0.31842499975 0.75
 O2 O 0.2976175025 0.33963499975 0.45677249875000003
 O2 O 0.2976175025 0.33963499975 0.7932275012500001
 O2 O 0.45238249750000004 0.41036500025 0.45677249875000003
 O2 O 0.45238249750000004 0.41036500025 0.7932275012500001
 O2 O 0.45238249750000004 0.33963499975 0.45677249875000003
 O2 O 0.45238249750000004 0.33963499975 0.7932275012500001
 O2 O 0.2976175025 0.41036500025 0.45677249875000003
 O2 O 0.2976175025 0.41036500025 0.7932275012500001
 O2 O 0.42261750249999996 0.46463499975 0.45677249875000003
 O2 O 0.42261750249999996 0.46463499975 0.7932275012500001
 O2 O 0.3273824975 0.28536500025 0.45677249875000003
 O2 O 0.3273824975 0.28536500025 0.7932275012500001
 O2 O 0.3273824975 0.46463499975 0.45677249875000003
 O2 O 0.3273824975 0.46463499975 0.7932275012500001
 O2 O 0.42261750249999996 0.28536500025 0.45677249875000003
 O2 O 0.42261750249999996 0.28536500025 0.7932275012500001
 O7 O 0.2698449995 0.28517999875 0.45663499825
 O7 O 0.2698449995 0.28517999875 0.79336500175
 O7 O 0.48015500050000004 0.46482000125 0.45663499825
 O7 O 0.48015500050000004 0.46482000125 0.79336500175
 O7 O 0.48015500050000004 0.28517999875 0.45663499825
 O7 O 0.48015500050000004 0.28517999875 0.79336500175
 O7 O 0.2698449995 0.46482000125 0.45663499825
 O7 O 0.2698449995 0.46482000125 0.79336500175
 O7 O 0.39484499949999996 0.41017999875 0.45663499825
 O7 O 0.39484499949999996 0.41017999875 0.79336500175
 O7 O 0.3551550005 0.33982000125 0.45663499825
 O7 O 0.3551550005 0.33982000125 0.79336500175
 O7 O 0.3551550005 0.41017999875 0.45663499825
 O7 O 0.3551550005 0.41017999875 0.79336500175
 O7 O 0.39484499949999996 0.33982000125 0.45663499825
 O7 O 0.39484499949999996 0.33982000125 0.79336500175
 Si1 Si 0.5672350005 0.27160999925 0.5748350025
 Si1 Si 0.6827649995 0.47839000075 0.6751649975
 Si1 Si 0.6827649995 0.47839000075 0.5748350025
 Si1 Si 0.5672350005 0.27160999925 0.6751649975
 Si1 Si 0.6827649995 0.27160999925 0.6751649975
 Si1 Si 0.5672350005 0.47839000075 0.5748350025
 Si1 Si 0.5672350005 0.47839000075 0.6751649975
 Si1 Si 0.6827649995 0.27160999925 0.5748350025
 Si1 Si 0.6922350005 0.39660999925 0.5748350025
 Si1 Si 0.5577649995 0.35339000075 0.6751649975
 Si1 Si 0.5577649995 0.35339000075 0.5748350025
 Si1 Si 0.6922350005 0.39660999925 0.6751649975
 Si1 Si 0.5577649995 0.39660999925 0.6751649975
 Si1 Si 0.6922350005 0.35339000075 0.5748350025
 Si1 Si 0.6922350005 0.35339000075 0.6751649975
 Si1 Si 0.5577649995 0.39660999925 0.5748350025
 Si2 Si 0.5301799997500001 0.27157500025 0.574832499
 Si2 Si 0.71982000025 0.47842499974999997 0.675167501
 Si2 Si 0.71982000025 0.47842499974999997 0.574832499
 Si2 Si 0.5301799997500001 0.27157500025 0.675167501
 Si2 Si 0.71982000025 0.27157500025 0.675167501
 Si2 Si 0.5301799997500001 0.47842499974999997 0.574832499
 Si2 Si 0.5301799997500001 0.47842499974999997 0.675167501
 Si2 Si 0.71982000025 0.27157500025 0.574832499
 Si2 Si 0.65517999975 0.39657500025000003 0.574832499
 Si2 Si 0.5948200002499999 0.35342499974999997 0.675167501
 Si2 Si 0.5948200002499999 0.35342499974999997 0.574832499
 Si2 Si 0.65517999975 0.39657500025000003 0.675167501
 Si2 Si 0.5948200002499999 0.39657500025000003 0.675167501
 Si2 Si 0.65517999975 0.35342499974999997 0.574832499
 Si2 Si 0.65517999975 0.35342499974999997 0.675167501
 Si2 Si 0.5948200002499999 0.39657500025000003 0.574832499
 Si3 Si 0.547362499 0.32644499849999997 0.5
 Si3 Si 0.547362499 0.32644499849999997 0.75
 Si3 Si 0.702637501 0.42355500150000003 0.5
 Si3 Si 0.702637501 0.42355500150000003 0.75
 Si3 Si 0.702637501 0.32644499849999997 0.5
 Si3 Si 0.702637501 0.32644499849999997 0.75
 Si3 Si 0.547362499 0.42355500150000003 0.5
 Si3 Si 0.547362499 0.42355500150000003 0.75
 Si3 Si 0.672362499 0.45144499849999997 0.5
 Si3 Si 0.672362499 0.45144499849999997 0.75
 Si3 Si 0.577637501 0.29855500150000003 0.5
 Si3 Si 0.577637501 0.29855500150000003 0.75
 Si3 Si 0.577637501 0.45144499849999997 0.5
 Si3 Si 0.577637501 0.45144499849999997 0.75
 Si3 Si 0.672362499 0.29855500150000003 0.5
 Si3 Si 0.672362499 0.29855500150000003 0.75
 Si4 Si 0.5178549997499999 0.29804499824999997 0.5
 Si4 Si 0.5178549997499999 0.29804499824999997 0.75
 Si4 Si 0.7321450002500001 0.45195500175000003 0.5
 Si4 Si 0.7321450002500001 0.45195500175000003 0.75
 Si4 Si 0.7321450002500001 0.29804499824999997 0.5
 Si4 Si 0.7321450002500001 0.29804499824999997 0.75
 Si4 Si 0.5178549997499999 0.45195500175000003 0.5
 Si4 Si 0.5178549997499999 0.45195500175000003 0.75
 Si4 Si 0.6428549997499999 0.42304499824999997 0.5
 Si4 Si 0.6428549997499999 0.42304499824999997 0.75
 Si4 Si 0.6071450002500001 0.32695500175000003 0.5
 Si4 Si 0.6071450002500001 0.32695500175000003 0.75
 Si4 Si 0.6071450002500001 0.42304499824999997 0.5
 Si4 Si 0.6071450002500001 0.42304499824999997 0.75
 Si4 Si 0.6428549997499999 0.32695500175000003 0.5
 Si4 Si 0.6428549997499999 0.32695500175000003 0.75
 O1 O 0.5487025007499999 0.27753500075 0.57191000125
 O1 O 0.7012974992500001 0.47246499924999996 0.67808999875
 O1 O 0.7012974992500001 0.47246499924999996 0.57191000125
 O1 O 0.5487025007499999 0.27753500075 0.67808999875
 O1 O 0.7012974992500001 0.27753500075 0.67808999875
 O1 O 0.5487025007499999 0.47246499924999996 0.57191000125
 O1 O 0.5487025007499999 0.47246499924999996 0.67808999875
 O1 O 0.7012974992500001 0.27753500075 0.57191000125
 O1 O 0.6737025007499999 0.40253500075000004 0.57191000125
 O1 O 0.5762974992500001 0.34746499925 0.67808999875
 O1 O 0.5762974992500001 0.34746499925 0.57191000125
 O1 O 0.6737025007499999 0.40253500075000004 0.67808999875
 O1 O 0.5762974992500001 0.40253500075000004 0.67808999875
 O1 O 0.6737025007499999 0.34746499925 0.57191000125
 O1 O 0.6737025007499999 0.34746499925 0.67808999875
 O1 O 0.5762974992500001 0.40253500075000004 0.57191000125
 O2 O 0.5773824974999999 0.28536500025 0.5432275012500001
 O2 O 0.6726175025 0.46463499975 0.70677249875
 O2 O 0.6726175025 0.46463499975 0.5432275012500001
 O2 O 0.5773824974999999 0.28536500025 0.70677249875
 O2 O 0.6726175025 0.28536500025 0.70677249875
 O2 O 0.5773824974999999 0.46463499975 0.5432275012500001
 O2 O 0.5773824974999999 0.46463499975 0.70677249875
 O2 O 0.6726175025 0.28536500025 0.5432275012500001
 O2 O 0.7023824975 0.41036500025 0.5432275012500001
 O2 O 0.5476175025000001 0.33963499975 0.70677249875
 O2 O 0.5476175025000001 0.33963499975 0.5432275012500001
 O2 O 0.7023824975 0.41036500025 0.70677249875
 O2 O 0.5476175025000001 0.41036500025 0.70677249875
 O2 O 0.7023824975 0.33963499975 0.5432275012500001
 O2 O 0.7023824975 0.33963499975 0.70677249875
 O2 O 0.5476175025000001 0.41036500025 0.5432275012500001
 O3 O 0.56933250275 0.25 0.55936750025
 O3 O 0.56933250275 0.5 0.55936750025
 O3 O 0.68066749725 0.25 0.69063249975
 O3 O 0.68066749725 0.5 0.69063249975
 O3 O 0.68066749725 0.25 0.55936750025
 O3 O 0.68066749725 0.5 0.55936750025
 O3 O 0.56933250275 0.25 0.69063249975
 O3 O 0.56933250275 0.5 0.69063249975
 O3 O 0.69433250275 0.375 0.55936750025
 O3 O 0.55566749725 0.375 0.69063249975
 O3 O 0.55566749725 0.375 0.55936750025
 O3 O 0.69433250275 0.375 0.69063249975
 O4 O 0.57323499775 0.27379499925 0.625
 O4 O 0.67676500225 0.47620500075 0.625
 O4 O 0.67676500225 0.27379499925 0.625
 O4 O 0.57323499775 0.47620500075 0.625
 O4 O 0.69823499775 0.39879499925 0.625
 O4 O 0.55176500225 0.35120500075 0.625
 O4 O 0.55176500225 0.39879499925 0.625
 O4 O 0.69823499775 0.35120500075 0.625
 O5 O 0.5281475 0.25 0.5590699985
 O5 O 0.5281475 0.5 0.5590699985
 O5 O 0.7218525 0.25 0.6909300015
 O5 O 0.7218525 0.5 0.6909300015
 O5 O 0.7218525 0.25 0.5590699985
 O5 O 0.7218525 0.5 0.5590699985
 O5 O 0.5281475 0.25 0.6909300015
 O5 O 0.5281475 0.5 0.6909300015
 O5 O 0.6531475 0.375 0.5590699985
 O5 O 0.5968525 0.375 0.6909300015
 O5 O 0.5968525 0.375 0.5590699985
 O5 O 0.6531475 0.375 0.6909300015
 O6 O 0.5241599995 0.2736249995 0.625
 O6 O 0.7258400005 0.47637500050000003 0.625
 O6 O 0.7258400005 0.2736249995 0.625
 O6 O 0.5241599995 0.47637500050000003 0.625
 O6 O 0.6491599995 0.39862499949999997 0.625
 O6 O 0.6008400005 0.35137500050000003 0.625
 O6 O 0.6008400005 0.39862499949999997 0.625
 O6 O 0.6491599995 0.35137500050000003 0.625
 O7 O 0.5198449995000001 0.28517999875 0.54336500175
 O7 O 0.7301550005 0.46482000125 0.70663499825
 O7 O 0.7301550005 0.46482000125 0.54336500175
 O7 O 0.5198449995000001 0.28517999875 0.70663499825
 O7 O 0.7301550005 0.28517999875 0.70663499825
 O7 O 0.5198449995000001 0.46482000125 0.54336500175
 O7 O 0.5198449995000001 0.46482000125 0.70663499825
 O7 O 0.7301550005 0.28517999875 0.54336500175
 O7 O 0.6448449995 0.41017999875 0.54336500175
 O7 O 0.6051550004999999 0.33982000125 0.70663499825
 O7 O 0.6051550004999999 0.33982000125 0.54336500175
 O7 O 0.6448449995 0.41017999875 0.70663499825
 O7 O 0.6051550004999999 0.41017999875 0.70663499825
 O7 O 0.6448449995 0.33982000125 0.54336500175
 O7 O 0.6448449995 0.33982000125 0.70663499825
 O7 O 0.6051550004999999 0.41017999875 0.54336500175
 O8 O 0.5625 0.3125 0.5
 O8 O 0.5625 0.3125 0.75
 O8 O 0.6875 0.4375 0.5
 O8 O 0.6875 0.4375 0.75
 O8 O 0.6875 0.3125 0.5
 O8 O 0.6875 0.3125 0.75
 O8 O 0.5625 0.4375 0.5
 O8 O 0.5625 0.4375 0.75
 O9 O 0.53091249975 0.31469249725 0.5
 O9 O 0.53091249975 0.31469249725 0.75
 O9 O 0.71908750025 0.43530750274999996 0.5
 O9 O 0.71908750025 0.43530750274999996 0.75
 O9 O 0.71908750025 0.31469249725 0.5
 O9 O 0.71908750025 0.31469249725 0.75
 O9 O 0.53091249975 0.43530750274999996 0.5
 O9 O 0.53091249975 0.43530750274999996 0.75
 O9 O 0.65591249975 0.43969249725000004 0.5
 O9 O 0.65591249975 0.43969249725000004 0.75
 O9 O 0.59408750025 0.31030750275 0.5
 O9 O 0.59408750025 0.31030750275 0.75
 O9 O 0.59408750025 0.43969249725000004 0.5
 O9 O 0.59408750025 0.43969249725000004 0.75
 O9 O 0.65591249975 0.31030750275 0.5
 O9 O 0.65591249975 0.31030750275 0.75
 O10 O 0.5 0.30657500025 0.5
 O10 O 0.5 0.30657500025 0.75
 O10 O 0.75 0.30657500025 0.5
 O10 O 0.75 0.30657500025 0.75
 O10 O 0.5 0.44342499975 0.5
 O10 O 0.5 0.44342499975 0.75
 O10 O 0.75 0.44342499975 0.5
 O10 O 0.75 0.44342499975 0.75
 O10 O 0.625 0.43157500025 0.5
 O10 O 0.625 0.43157500025 0.75
 O10 O 0.625 0.31842499975 0.5
 O10 O 0.625 0.31842499975 0.75
 O2 O 0.5476175025000001 0.33963499975 0.45677249875000003
 O2 O 0.5476175025000001 0.33963499975 0.7932275012500001
 O2 O 0.7023824975 0.41036500025 0.45677249875000003
 O2 O 0.7023824975 0.41036500025 0.7932275012500001
 O2 O 0.7023824975 0.33963499975 0.45677249875000003
 O2 O 0.7023824975 0.33963499975 0.7932275012500001
 O2 O 0.5476175025000001 0.41036500025 0.45677249875000003
 O2 O 0.5476175025000001 0.41036500025 0.7932275012500001
 O2 O 0.6726175025 0.46463499975 0.45677249875000003
 O2 O 0.6726175025 0.46463499975 0.7932275012500001
 O2 O 0.5773824974999999 0.28536500025 0.45677249875000003
 O2 O 0.5773824974999999 0.28536500025 0.7932275012500001
 O2 O 0.5773824974999999 0.46463499975 0.45677249875000003
 O2 O 0.5773824974999999 0.46463499975 0.7932275012500001
 O2 O 0.6726175025 0.28536500025 0.45677249875000003
 O2 O 0.6726175025 0.28536500025 0.7932275012500001
 O7 O 0.5198449995000001 0.28517999875 0.45663499825
 O7 O 0.5198449995000001 0.28517999875 0.79336500175
 O7 O 0.7301550005 0.46482000125 0.45663499825
 O7 O 0.7301550005 0.46482000125 0.79336500175
 O7 O 0.7301550005 0.28517999875 0.45663499825
 O7 O 0.7301550005 0.28517999875 0.79336500175
 O7 O 0.5198449995000001 0.46482000125 0.45663499825
 O7 O 0.5198449995000001 0.46482000125 0.79336500175
 O7 O 0.6448449995 0.41017999875 0.45663499825
 O7 O 0.6448449995 0.41017999875 0.79336500175
 O7 O 0.6051550004999999 0.33982000125 0.45663499825
 O7 O 0.6051550004999999 0.33982000125 0.79336500175
 O7 O 0.6051550004999999 0.41017999875 0.45663499825
 O7 O 0.6051550004999999 0.41017999875 0.79336500175
 O7 O 0.6448449995 0.33982000125 0.45663499825
 O7 O 0.6448449995 0.33982000125 0.79336500175
 Si1 Si 0.8172350005 0.27160999925 0.5748350025
 Si1 Si 0.9327649995 0.47839000075 0.6751649975
 Si1 Si 0.9327649995 0.47839000075 0.5748350025
 Si1 Si 0.8172350005 0.27160999925 0.6751649975
 Si1 Si 0.9327649995 0.27160999925 0.6751649975
 Si1 Si 0.8172350005 0.47839000075 0.5748350025
 Si1 Si 0.8172350005 0.47839000075 0.6751649975
 Si1 Si 0.9327649995 0.27160999925 0.5748350025
 Si1 Si 0.9422350005 0.39660999925 0.5748350025
 Si1 Si 0.8077649995 0.35339000075 0.6751649975
 Si1 Si 0.8077649995 0.35339000075 0.5748350025
 Si1 Si 0.9422350005 0.39660999925 0.6751649975
 Si1 Si 0.8077649995 0.39660999925 0.6751649975
 Si1 Si 0.9422350005 0.35339000075 0.5748350025
 Si1 Si 0.9422350005 0.35339000075 0.6751649975
 Si1 Si 0.8077649995 0.39660999925 0.5748350025
 Si2 Si 0.7801799997500001 0.27157500025 0.574832499
 Si2 Si 0.96982000025 0.47842499974999997 0.675167501
 Si2 Si 0.96982000025 0.47842499974999997 0.574832499
 Si2 Si 0.7801799997500001 0.27157500025 0.675167501
 Si2 Si 0.96982000025 0.27157500025 0.675167501
 Si2 Si 0.7801799997500001 0.47842499974999997 0.574832499
 Si2 Si 0.7801799997500001 0.47842499974999997 0.675167501
 Si2 Si 0.96982000025 0.27157500025 0.574832499
 Si2 Si 0.90517999975 0.39657500025000003 0.574832499
 Si2 Si 0.8448200002499999 0.35342499974999997 0.675167501
 Si2 Si 0.8448200002499999 0.35342499974999997 0.574832499
 Si2 Si 0.90517999975 0.39657500025000003 0.675167501
 Si2 Si 0.8448200002499999 0.39657500025000003 0.675167501
 Si2 Si 0.90517999975 0.35342499974999997 0.574832499
 Si2 Si 0.90517999975 0.35342499974999997 0.675167501
 Si2 Si 0.8448200002499999 0.39657500025000003 0.574832499
 Si3 Si 0.797362499 0.32644499849999997 0.5
 Si3 Si 0.797362499 0.32644499849999997 0.75
 Si3 Si 0.952637501 0.42355500150000003 0.5
 Si3 Si 0.952637501 0.42355500150000003 0.75
 Si3 Si 0.952637501 0.32644499849999997 0.5
 Si3 Si 0.952637501 0.32644499849999997 0.75
 Si3 Si 0.797362499 0.42355500150000003 0.5
 Si3 Si 0.797362499 0.42355500150000003 0.75
 Si3 Si 0.922362499 0.45144499849999997 0.5
 Si3 Si 0.922362499 0.45144499849999997 0.75
 Si3 Si 0.827637501 0.29855500150000003 0.5
 Si3 Si 0.827637501 0.29855500150000003 0.75
 Si3 Si 0.827637501 0.45144499849999997 0.5
 Si3 Si 0.827637501 0.45144499849999997 0.75
 Si3 Si 0.922362499 0.29855500150000003 0.5
 Si3 Si 0.922362499 0.29855500150000003 0.75
 Si4 Si 0.7678549997499999 0.29804499824999997 0.5
 Si4 Si 0.7678549997499999 0.29804499824999997 0.75
 Si4 Si 0.9821450002500001 0.45195500175000003 0.5
 Si4 Si 0.9821450002500001 0.45195500175000003 0.75
 Si4 Si 0.9821450002500001 0.29804499824999997 0.5
 Si4 Si 0.9821450002500001 0.29804499824999997 0.75
 Si4 Si 0.7678549997499999 0.45195500175000003 0.5
 Si4 Si 0.7678549997499999 0.45195500175000003 0.75
 Si4 Si 0.8928549997499999 0.42304499824999997 0.5
 Si4 Si 0.8928549997499999 0.42304499824999997 0.75
 Si4 Si 0.8571450002500001 0.32695500175000003 0.5
 Si4 Si 0.8571450002500001 0.32695500175000003 0.75
 Si4 Si 0.8571450002500001 0.42304499824999997 0.5
 Si4 Si 0.8571450002500001 0.42304499824999997 0.75
 Si4 Si 0.8928549997499999 0.32695500175000003 0.5
 Si4 Si 0.8928549997499999 0.32695500175000003 0.75
 O1 O 0.7987025007499999 0.27753500075 0.57191000125
 O1 O 0.9512974992500001 0.47246499924999996 0.67808999875
 O1 O 0.9512974992500001 0.47246499924999996 0.57191000125
 O1 O 0.7987025007499999 0.27753500075 0.67808999875
 O1 O 0.9512974992500001 0.27753500075 0.67808999875
 O1 O 0.7987025007499999 0.47246499924999996 0.57191000125
 O1 O 0.7987025007499999 0.47246499924999996 0.67808999875
 O1 O 0.9512974992500001 0.27753500075 0.57191000125
 O1 O 0.9237025007499999 0.40253500075000004 0.57191000125
 O1 O 0.8262974992500001 0.34746499925 0.67808999875
 O1 O 0.8262974992500001 0.34746499925 0.57191000125
 O1 O 0.9237025007499999 0.40253500075000004 0.67808999875
 O1 O 0.8262974992500001 0.40253500075000004 0.67808999875
 O1 O 0.9237025007499999 0.34746499925 0.57191000125
 O1 O 0.9237025007499999 0.34746499925 0.67808999875
 O1 O 0.8262974992500001 0.40253500075000004 0.57191000125
 O2 O 0.8273824974999999 0.28536500025 0.5432275012500001
 O2 O 0.9226175025 0.46463499975 0.70677249875
 O2 O 0.9226175025 0.46463499975 0.5432275012500001
 O2 O 0.8273824974999999 0.28536500025 0.70677249875
 O2 O 0.9226175025 0.28536500025 0.70677249875
 O2 O 0.8273824974999999 0.46463499975 0.5432275012500001
 O2 O 0.8273824974999999 0.46463499975 0.70677249875
 O2 O 0.9226175025 0.28536500025 0.5432275012500001
 O2 O 0.9523824975 0.41036500025 0.5432275012500001
 O2 O 0.7976175025000001 0.33963499975 0.70677249875
 O2 O 0.7976175025000001 0.33963499975 0.5432275012500001
 O2 O 0.9523824975 0.41036500025 0.70677249875
 O2 O 0.7976175025000001 0.41036500025 0.70677249875
 O2 O 0.9523824975 0.33963499975 0.5432275012500001
 O2 O 0.9523824975 0.33963499975 0.70677249875
 O2 O 0.7976175025000001 0.41036500025 0.5432275012500001
 O3 O 0.81933250275 0.25 0.55936750025
 O3 O 0.81933250275 0.5 0.55936750025
 O3 O 0.93066749725 0.25 0.69063249975
 O3 O 0.93066749725 0.5 0.69063249975
 O3 O 0.93066749725 0.25 0.55936750025
 O3 O 0.93066749725 0.5 0.55936750025
 O3 O 0.81933250275 0.25 0.69063249975
 O3 O 0.81933250275 0.5 0.69063249975
 O3 O 0.94433250275 0.375 0.55936750025
 O3 O 0.80566749725 0.375 0.69063249975
 O3 O 0.80566749725 0.375 0.55936750025
 O3 O 0.94433250275 0.375 0.69063249975
 O4 O 0.82323499775 0.27379499925 0.625
 O4 O 0.92676500225 0.47620500075 0.625
 O4 O 0.92676500225 0.27379499925 0.625
 O4 O 0.82323499775 0.47620500075 0.625
 O4 O 0.94823499775 0.39879499925 0.625
 O4 O 0.80176500225 0.35120500075 0.625
 O4 O 0.80176500225 0.39879499925 0.625
 O4 O 0.94823499775 0.35120500075 0.625
 O5 O 0.7781475 0.25 0.5590699985
 O5 O 0.7781475 0.5 0.5590699985
 O5 O 0.9718525 0.25 0.6909300015
 O5 O 0.9718525 0.5 0.6909300015
 O5 O 0.9718525 0.25 0.5590699985
 O5 O 0.9718525 0.5 0.5590699985
 O5 O 0.7781475 0.25 0.6909300015
 O5 O 0.7781475 0.5 0.6909300015
 O5 O 0.9031475 0.375 0.5590699985
 O5 O 0.8468525 0.375 0.6909300015
 O5 O 0.8468525 0.375 0.5590699985
 O5 O 0.9031475 0.375 0.6909300015
 O6 O 0.7741599995 0.2736249995 0.625
 O6 O 0.9758400005 0.47637500050000003 0.625
 O6 O 0.9758400005 0.2736249995 0.625
 O6 O 0.7741599995 0.47637500050000003 0.625
 O6 O 0.8991599995 0.39862499949999997 0.625
 O6 O 0.8508400005 0.35137500050000003 0.625
 O6 O 0.8508400005 0.39862499949999997 0.625
 O6 O 0.8991599995 0.35137500050000003 0.625
 O7 O 0.7698449995000001 0.28517999875 0.54336500175
 O7 O 0.9801550005 0.46482000125 0.70663499825
 O7 O 0.9801550005 0.46482000125 0.54336500175
 O7 O 0.7698449995000001 0.28517999875 0.70663499825
 O7 O 0.9801550005 0.28517999875 0.70663499825
 O7 O 0.7698449995000001 0.46482000125 0.54336500175
 O7 O 0.7698449995000001 0.46482000125 0.70663499825
 O7 O 0.9801550005 0.28517999875 0.54336500175
 O7 O 0.8948449995 0.41017999875 0.54336500175
 O7 O 0.8551550004999999 0.33982000125 0.70663499825
 O7 O 0.8551550004999999 0.33982000125 0.54336500175
 O7 O 0.8948449995 0.41017999875 0.70663499825
 O7 O 0.8551550004999999 0.41017999875 0.70663499825
 O7 O 0.8948449995 0.33982000125 0.54336500175
 O7 O 0.8948449995 0.33982000125 0.70663499825
 O7 O 0.8551550004999999 0.41017999875 0.54336500175
 O8 O 0.8125 0.3125 0.5
 O8 O 0.8125 0.3125 0.75
 O8 O 0.9375 0.4375 0.5
 O8 O 0.9375 0.4375 0.75
 O8 O 0.9375 0.3125 0.5
 O8 O 0.9375 0.3125 0.75
 O8 O 0.8125 0.4375 0.5
 O8 O 0.8125 0.4375 0.75
 O9 O 0.78091249975 0.31469249725 0.5
 O9 O 0.78091249975 0.31469249725 0.75
 O9 O 0.96908750025 0.43530750274999996 0.5
 O9 O 0.96908750025 0.43530750274999996 0.75
 O9 O 0.96908750025 0.31469249725 0.5
 O9 O 0.96908750025 0.31469249725 0.75
 O9 O 0.78091249975 0.43530750274999996 0.5
 O9 O 0.78091249975 0.43530750274999996 0.75
 O9 O 0.90591249975 0.43969249725000004 0.5
 O9 O 0.90591249975 0.43969249725000004 0.75
 O9 O 0.84408750025 0.31030750275 0.5
 O9 O 0.84408750025 0.31030750275 0.75
 O9 O 0.84408750025 0.43969249725000004 0.5
 O9 O 0.84408750025 0.43969249725000004 0.75
 O9 O 0.90591249975 0.31030750275 0.5
 O9 O 0.90591249975 0.31030750275 0.75
 O10 O 0.75 0.30657500025 0.5
 O10 O 0.75 0.30657500025 0.75
 O10 O 1.0 0.30657500025 0.5
 O10 O 1.0 0.30657500025 0.75
 O10 O 0.75 0.44342499975 0.5
 O10 O 0.75 0.44342499975 0.75
 O10 O 1.0 0.44342499975 0.5
 O10 O 1.0 0.44342499975 0.75
 O10 O 0.875 0.43157500025 0.5
 O10 O 0.875 0.43157500025 0.75
 O10 O 0.875 0.31842499975 0.5
 O10 O 0.875 0.31842499975 0.75
 O2 O 0.7976175025000001 0.33963499975 0.45677249875000003
 O2 O 0.7976175025000001 0.33963499975 0.7932275012500001
 O2 O 0.9523824975 0.41036500025 0.45677249875000003
 O2 O 0.9523824975 0.41036500025 0.7932275012500001
 O2 O 0.9523824975 0.33963499975 0.45677249875000003
 O2 O 0.9523824975 0.33963499975 0.7932275012500001
 O2 O 0.7976175025000001 0.41036500025 0.45677249875000003
 O2 O 0.7976175025000001 0.41036500025 0.7932275012500001
 O2 O 0.9226175025 0.46463499975 0.45677249875000003
 O2 O 0.9226175025 0.46463499975 0.7932275012500001
 O2 O 0.8273824974999999 0.28536500025 0.45677249875000003
 O2 O 0.8273824974999999 0.28536500025 0.7932275012500001
 O2 O 0.8273824974999999 0.46463499975 0.45677249875000003
 O2 O 0.8273824974999999 0.46463499975 0.7932275012500001
 O2 O 0.9226175025 0.28536500025 0.45677249875000003
 O2 O 0.9226175025 0.28536500025 0.7932275012500001
 O7 O 0.7698449995000001 0.28517999875 0.45663499825
 O7 O 0.7698449995000001 0.28517999875 0.79336500175
 O7 O 0.9801550005 0.46482000125 0.45663499825
 O7 O 0.9801550005 0.46482000125 0.79336500175
 O7 O 0.9801550005 0.28517999875 0.45663499825
 O7 O 0.9801550005 0.28517999875 0.79336500175
 O7 O 0.7698449995000001 0.46482000125 0.45663499825
 O7 O 0.7698449995000001 0.46482000125 0.79336500175
 O7 O 0.8948449995 0.41017999875 0.45663499825
 O7 O 0.8948449995 0.41017999875 0.79336500175
 O7 O 0.8551550004999999 0.33982000125 0.45663499825
 O7 O 0.8551550004999999 0.33982000125 0.79336500175
 O7 O 0.8551550004999999 0.41017999875 0.45663499825
 O7 O 0.8551550004999999 0.41017999875 0.79336500175
 O7 O 0.8948449995 0.33982000125 0.45663499825
 O7 O 0.8948449995 0.33982000125 0.79336500175
 Si1 Si 0.0672350005 0.5216099992500001 0.5748350025
 Si1 Si 0.1827649995 0.7283900007499999 0.6751649975
 Si1 Si 0.1827649995 0.7283900007499999 0.5748350025
 Si1 Si 0.0672350005 0.5216099992500001 0.6751649975
 Si1 Si 0.1827649995 0.5216099992500001 0.6751649975
 Si1 Si 0.0672350005 0.7283900007499999 0.5748350025
 Si1 Si 0.0672350005 0.7283900007499999 0.6751649975
 Si1 Si 0.1827649995 0.5216099992500001 0.5748350025
 Si1 Si 0.1922350005 0.6466099992500001 0.5748350025
 Si1 Si 0.0577649995 0.6033900007499999 0.6751649975
 Si1 Si 0.0577649995 0.6033900007499999 0.5748350025
 Si1 Si 0.1922350005 0.6466099992500001 0.6751649975
 Si1 Si 0.0577649995 0.6466099992500001 0.6751649975
 Si1 Si 0.1922350005 0.6033900007499999 0.5748350025
 Si1 Si 0.1922350005 0.6033900007499999 0.6751649975
 Si1 Si 0.0577649995 0.6466099992500001 0.5748350025
 Si2 Si 0.03017999975 0.5215750002499999 0.574832499
 Si2 Si 0.21982000025 0.72842499975 0.675167501
 Si2 Si 0.21982000025 0.72842499975 0.574832499
 Si2 Si 0.03017999975 0.5215750002499999 0.675167501
 Si2 Si 0.21982000025 0.5215750002499999 0.675167501
 Si2 Si 0.03017999975 0.72842499975 0.574832499
 Si2 Si 0.03017999975 0.72842499975 0.675167501
 Si2 Si 0.21982000025 0.5215750002499999 0.574832499
 Si2 Si 0.15517999975 0.64657500025 0.574832499
 Si2 Si 0.09482000025 0.60342499975 0.675167501
 Si2 Si 0.09482000025 0.60342499975 0.574832499
 Si2 Si 0.15517999975 0.64657500025 0.675167501
 Si2 Si 0.09482000025 0.64657500025 0.675167501
 Si2 Si 0.15517999975 0.60342499975 0.574832499
 Si2 Si 0.15517999975 0.60342499975 0.675167501
 Si2 Si 0.09482000025 0.64657500025 0.574832499
 Si3 Si 0.047362499 0.5764449985 0.5
 Si3 Si 0.047362499 0.5764449985 0.75
 Si3 Si 0.202637501 0.6735550015 0.5
 Si3 Si 0.202637501 0.6735550015 0.75
 Si3 Si 0.202637501 0.5764449985 0.5
 Si3 Si 0.202637501 0.5764449985 0.75
 Si3 Si 0.047362499 0.6735550015 0.5
 Si3 Si 0.047362499 0.6735550015 0.75
 Si3 Si 0.172362499 0.7014449985 0.5
 Si3 Si 0.172362499 0.7014449985 0.75
 Si3 Si 0.077637501 0.5485550015 0.5
 Si3 Si 0.077637501 0.5485550015 0.75
 Si3 Si 0.077637501 0.7014449985 0.5
 Si3 Si 0.077637501 0.7014449985 0.75
 Si3 Si 0.172362499 0.5485550015 0.5
 Si3 Si 0.172362499 0.5485550015 0.75
 Si4 Si 0.01785499975 0.54804499825 0.5
 Si4 Si 0.01785499975 0.54804499825 0.75
 Si4 Si 0.23214500025 0.70195500175 0.5
 Si4 Si 0.23214500025 0.70195500175 0.75
 Si4 Si 0.23214500025 0.54804499825 0.5
 Si4 Si 0.23214500025 0.54804499825 0.75
 Si4 Si 0.01785499975 0.70195500175 0.5
 Si4 Si 0.01785499975 0.70195500175 0.75
 Si4 Si 0.14285499975 0.67304499825 0.5
 Si4 Si 0.14285499975 0.67304499825 0.75
 Si4 Si 0.10714500025 0.57695500175 0.5
 Si4 Si 0.10714500025 0.57695500175 0.75
 Si4 Si 0.10714500025 0.67304499825 0.5
 Si4 Si 0.10714500025 0.67304499825 0.75
 Si4 Si 0.14285499975 0.57695500175 0.5
 Si4 Si 0.14285499975 0.57695500175 0.75
 O1 O 0.04870250075 0.5275350007499999 0.57191000125
 O1 O 0.20129749925 0.72246499925 0.67808999875
 O1 O 0.20129749925 0.72246499925 0.57191000125
 O1 O 0.04870250075 0.5275350007499999 0.67808999875
 O1 O 0.20129749925 0.5275350007499999 0.67808999875
 O1 O 0.04870250075 0.72246499925 0.57191000125
 O1 O 0.04870250075 0.72246499925 0.67808999875
 O1 O 0.20129749925 0.5275350007499999 0.57191000125
 O1 O 0.17370250075 0.65253500075 0.57191000125
 O1 O 0.07629749925 0.5974649992500001 0.67808999875
 O1 O 0.07629749925 0.5974649992500001 0.57191000125
 O1 O 0.17370250075 0.65253500075 0.67808999875
 O1 O 0.07629749925 0.65253500075 0.67808999875
 O1 O 0.17370250075 0.5974649992500001 0.57191000125
 O1 O 0.17370250075 0.5974649992500001 0.67808999875
 O1 O 0.07629749925 0.65253500075 0.57191000125
 O2 O 0.0773824975 0.53536500025 0.5432275012500001
 O2 O 0.1726175025 0.71463499975 0.70677249875
 O2 O 0.1726175025 0.71463499975 0.5432275012500001
 O2 O 0.0773824975 0.53536500025 0.70677249875
 O2 O 0.1726175025 0.53536500025 0.70677249875
 O2 O 0.0773824975 0.71463499975 0.5432275012500001
 O2 O 0.0773824975 0.71463499975 0.70677249875
 O2 O 0.1726175025 0.53536500025 0.5432275012500001
 O2 O 0.2023824975 0.66036500025 0.5432275012500001
 O2 O 0.0476175025 0.58963499975 0.70677249875
 O2 O 0.0476175025 0.58963499975 0.5432275012500001
 O2 O 0.2023824975 0.66036500025 0.70677249875
 O2 O 0.0476175025 0.66036500025 0.70677249875
 O2 O 0.2023824975 0.58963499975 0.5432275012500001
 O2 O 0.2023824975 0.58963499975 0.70677249875
 O2 O 0.0476175025 0.66036500025 0.5432275012500001
 O3 O 0.06933250275 0.5 0.55936750025
 O3 O 0.06933250275 0.75 0.55936750025
 O3 O 0.18066749725 0.5 0.69063249975
 O3 O 0.18066749725 0.75 0.69063249975
 O3 O 0.18066749725 0.5 0.55936750025
 O3 O 0.18066749725 0.75 0.55936750025
 O3 O 0.06933250275 0.5 0.69063249975
 O3 O 0.06933250275 0.75 0.69063249975
 O3 O 0.19433250275 0.625 0.55936750025
 O3 O 0.05566749725 0.625 0.69063249975
 O3 O 0.05566749725 0.625 0.55936750025
 O3 O 0.19433250275 0.625 0.69063249975
 O4 O 0.07323499775 0.52379499925 0.625
 O4 O 0.17676500225 0.72620500075 0.625
 O4 O 0.17676500225 0.52379499925 0.625
 O4 O 0.07323499775 0.72620500075 0.625
 O4 O 0.19823499775 0.64879499925 0.625
 O4 O 0.05176500225 0.60120500075 0.625
 O4 O 0.05176500225 0.64879499925 0.625
 O4 O 0.19823499775 0.60120500075 0.625
 O5 O 0.0281475 0.5 0.5590699985
 O5 O 0.0281475 0.75 0.5590699985
 O5 O 0.2218525 0.5 0.6909300015
 O5 O 0.2218525 0.75 0.6909300015
 O5 O 0.2218525 0.5 0.5590699985
 O5 O 0.2218525 0.75 0.5590699985
 O5 O 0.0281475 0.5 0.6909300015
 O5 O 0.0281475 0.75 0.6909300015
 O5 O 0.1531475 0.625 0.5590699985
 O5 O 0.0968525 0.625 0.6909300015
 O5 O 0.0968525 0.625 0.5590699985
 O5 O 0.1531475 0.625 0.6909300015
 O6 O 0.0241599995 0.5236249995 0.625
 O6 O 0.2258400005 0.7263750005 0.625
 O6 O 0.2258400005 0.5236249995 0.625
 O6 O 0.0241599995 0.7263750005 0.625
 O6 O 0.1491599995 0.6486249995 0.625
 O6 O 0.1008400005 0.6013750005 0.625
 O6 O 0.1008400005 0.6486249995 0.625
 O6 O 0.1491599995 0.6013750005 0.625
 O7 O 0.0198449995 0.53517999875 0.54336500175
 O7 O 0.2301550005 0.71482000125 0.70663499825
 O7 O 0.2301550005 0.71482000125 0.54336500175
 O7 O 0.0198449995 0.53517999875 0.70663499825
 O7 O 0.2301550005 0.53517999875 0.70663499825
 O7 O 0.0198449995 0.71482000125 0.54336500175
 O7 O 0.0198449995 0.71482000125 0.70663499825
 O7 O 0.2301550005 0.53517999875 0.54336500175
 O7 O 0.1448449995 0.66017999875 0.54336500175
 O7 O 0.1051550005 0.58982000125 0.70663499825
 O7 O 0.1051550005 0.58982000125 0.54336500175
 O7 O 0.1448449995 0.66017999875 0.70663499825
 O7 O 0.1051550005 0.66017999875 0.70663499825
 O7 O 0.1448449995 0.58982000125 0.54336500175
 O7 O 0.1448449995 0.58982000125 0.70663499825
 O7 O 0.1051550005 0.66017999875 0.54336500175
 O8 O 0.0625 0.5625 0.5
 O8 O 0.0625 0.5625 0.75
 O8 O 0.1875 0.6875 0.5
 O8 O 0.1875 0.6875 0.75
 O8 O 0.1875 0.5625 0.5
 O8 O 0.1875 0.5625 0.75
 O8 O 0.0625 0.6875 0.5
 O8 O 0.0625 0.6875 0.75
 O9 O 0.03091249975 0.56469249725 0.5
 O9 O 0.03091249975 0.56469249725 0.75
 O9 O 0.21908750025 0.68530750275 0.5
 O9 O 0.21908750025 0.68530750275 0.75
 O9 O 0.21908750025 0.56469249725 0.5
 O9 O 0.21908750025 0.56469249725 0.75
 O9 O 0.03091249975 0.68530750275 0.5
 O9 O 0.03091249975 0.68530750275 0.75
 O9 O 0.15591249975 0.68969249725 0.5
 O9 O 0.15591249975 0.68969249725 0.75
 O9 O 0.09408750025 0.56030750275 0.5
 O9 O 0.09408750025 0.56030750275 0.75
 O9 O 0.09408750025 0.68969249725 0.5
 O9 O 0.09408750025 0.68969249725 0.75
 O9 O 0.15591249975 0.56030750275 0.5
 O9 O 0.15591249975 0.56030750275 0.75
 O10 O 0.0 0.5565750002500001 0.5
 O10 O 0.0 0.5565750002500001 0.75
 O10 O 0.25 0.5565750002500001 0.5
 O10 O 0.25 0.5565750002500001 0.75
 O10 O 0.0 0.6934249997499999 0.5
 O10 O 0.0 0.6934249997499999 0.75
 O10 O 0.25 0.6934249997499999 0.5
 O10 O 0.25 0.6934249997499999 0.75
 O10 O 0.125 0.6815750002500001 0.5
 O10 O 0.125 0.6815750002500001 0.75
 O10 O 0.125 0.5684249997499999 0.5
 O10 O 0.125 0.5684249997499999 0.75
 O2 O 0.0476175025 0.58963499975 0.45677249875000003
 O2 O 0.0476175025 0.58963499975 0.7932275012500001
 O2 O 0.2023824975 0.66036500025 0.45677249875000003
 O2 O 0.2023824975 0.66036500025 0.7932275012500001
 O2 O 0.2023824975 0.58963499975 0.45677249875000003
 O2 O 0.2023824975 0.58963499975 0.7932275012500001
 O2 O 0.0476175025 0.66036500025 0.45677249875000003
 O2 O 0.0476175025 0.66036500025 0.7932275012500001
 O2 O 0.1726175025 0.71463499975 0.45677249875000003
 O2 O 0.1726175025 0.71463499975 0.7932275012500001
 O2 O 0.0773824975 0.53536500025 0.45677249875000003
 O2 O 0.0773824975 0.53536500025 0.7932275012500001
 O2 O 0.0773824975 0.71463499975 0.45677249875000003
 O2 O 0.0773824975 0.71463499975 0.7932275012500001
 O2 O 0.1726175025 0.53536500025 0.45677249875000003
 O2 O 0.1726175025 0.53536500025 0.7932275012500001
 O7 O 0.0198449995 0.53517999875 0.45663499825
 O7 O 0.0198449995 0.53517999875 0.79336500175
 O7 O 0.2301550005 0.71482000125 0.45663499825
 O7 O 0.2301550005 0.71482000125 0.79336500175
 O7 O 0.2301550005 0.53517999875 0.45663499825
 O7 O 0.2301550005 0.53517999875 0.79336500175
 O7 O 0.0198449995 0.71482000125 0.45663499825
 O7 O 0.0198449995 0.71482000125 0.79336500175
 O7 O 0.1448449995 0.66017999875 0.45663499825
 O7 O 0.1448449995 0.66017999875 0.79336500175
 O7 O 0.1051550005 0.58982000125 0.45663499825
 O7 O 0.1051550005 0.58982000125 0.79336500175
 O7 O 0.1051550005 0.66017999875 0.45663499825
 O7 O 0.1051550005 0.66017999875 0.79336500175
 O7 O 0.1448449995 0.58982000125 0.45663499825
 O7 O 0.1448449995 0.58982000125 0.79336500175
 Si1 Si 0.3172350005 0.5216099992500001 0.5748350025
 Si1 Si 0.4327649995 0.7283900007499999 0.6751649975
 Si1 Si 0.4327649995 0.7283900007499999 0.5748350025
 Si1 Si 0.3172350005 0.5216099992500001 0.6751649975
 Si1 Si 0.4327649995 0.5216099992500001 0.6751649975
 Si1 Si 0.3172350005 0.7283900007499999 0.5748350025
 Si1 Si 0.3172350005 0.7283900007499999 0.6751649975
 Si1 Si 0.4327649995 0.5216099992500001 0.5748350025
 Si1 Si 0.4422350005 0.6466099992500001 0.5748350025
 Si1 Si 0.3077649995 0.6033900007499999 0.6751649975
 Si1 Si 0.3077649995 0.6033900007499999 0.5748350025
 Si1 Si 0.4422350005 0.6466099992500001 0.6751649975
 Si1 Si 0.3077649995 0.6466099992500001 0.6751649975
 Si1 Si 0.4422350005 0.6033900007499999 0.5748350025
 Si1 Si 0.4422350005 0.6033900007499999 0.6751649975
 Si1 Si 0.3077649995 0.6466099992500001 0.5748350025
 Si2 Si 0.28017999975 0.5215750002499999 0.574832499
 Si2 Si 0.46982000025000004 0.72842499975 0.675167501
 Si2 Si 0.46982000025000004 0.72842499975 0.574832499
 Si2 Si 0.28017999975 0.5215750002499999 0.675167501
 Si2 Si 0.46982000025000004 0.5215750002499999 0.675167501
 Si2 Si 0.28017999975 0.72842499975 0.574832499
 Si2 Si 0.28017999975 0.72842499975 0.675167501
 Si2 Si 0.46982000025000004 0.5215750002499999 0.574832499
 Si2 Si 0.40517999974999996 0.64657500025 0.574832499
 Si2 Si 0.34482000025 0.60342499975 0.675167501
 Si2 Si 0.34482000025 0.60342499975 0.574832499
 Si2 Si 0.40517999974999996 0.64657500025 0.675167501
 Si2 Si 0.34482000025 0.64657500025 0.675167501
 Si2 Si 0.40517999974999996 0.60342499975 0.574832499
 Si2 Si 0.40517999974999996 0.60342499975 0.675167501
 Si2 Si 0.34482000025 0.64657500025 0.574832499
 Si3 Si 0.297362499 0.5764449985 0.5
 Si3 Si 0.297362499 0.5764449985 0.75
 Si3 Si 0.452637501 0.6735550015 0.5
 Si3 Si 0.452637501 0.6735550015 0.75
 Si3 Si 0.452637501 0.5764449985 0.5
 Si3 Si 0.452637501 0.5764449985 0.75
 Si3 Si 0.297362499 0.6735550015 0.5
 Si3 Si 0.297362499 0.6735550015 0.75
 Si3 Si 0.422362499 0.7014449985 0.5
 Si3 Si 0.422362499 0.7014449985 0.75
 Si3 Si 0.327637501 0.5485550015 0.5
 Si3 Si 0.327637501 0.5485550015 0.75
 Si3 Si 0.327637501 0.7014449985 0.5
 Si3 Si 0.327637501 0.7014449985 0.75
 Si3 Si 0.422362499 0.5485550015 0.5
 Si3 Si 0.422362499 0.5485550015 0.75
 Si4 Si 0.26785499975 0.54804499825 0.5
 Si4 Si 0.26785499975 0.54804499825 0.75
 Si4 Si 0.48214500025 0.70195500175 0.5
 Si4 Si 0.48214500025 0.70195500175 0.75
 Si4 Si 0.48214500025 0.54804499825 0.5
 Si4 Si 0.48214500025 0.54804499825 0.75
 Si4 Si 0.26785499975 0.70195500175 0.5
 Si4 Si 0.26785499975 0.70195500175 0.75
 Si4 Si 0.39285499975 0.67304499825 0.5
 Si4 Si 0.39285499975 0.67304499825 0.75
 Si4 Si 0.35714500025 0.57695500175 0.5
 Si4 Si 0.35714500025 0.57695500175 0.75
 Si4 Si 0.35714500025 0.67304499825 0.5
 Si4 Si 0.35714500025 0.67304499825 0.75
 Si4 Si 0.39285499975 0.57695500175 0.5
 Si4 Si 0.39285499975 0.57695500175 0.75
 O1 O 0.29870250075 0.5275350007499999 0.57191000125
 O1 O 0.45129749925 0.72246499925 0.67808999875
 O1 O 0.45129749925 0.72246499925 0.57191000125
 O1 O 0.29870250075 0.5275350007499999 0.67808999875
 O1 O 0.45129749925 0.5275350007499999 0.67808999875
 O1 O 0.29870250075 0.72246499925 0.57191000125
 O1 O 0.29870250075 0.72246499925 0.67808999875
 O1 O 0.45129749925 0.5275350007499999 0.57191000125
 O1 O 0.42370250075 0.65253500075 0.57191000125
 O1 O 0.32629749925 0.5974649992500001 0.67808999875
 O1 O 0.32629749925 0.5974649992500001 0.57191000125
 O1 O 0.42370250075 0.65253500075 0.67808999875
 O1 O 0.32629749925 0.65253500075 0.67808999875
 O1 O 0.42370250075 0.5974649992500001 0.57191000125
 O1 O 0.42370250075 0.5974649992500001 0.67808999875
 O1 O 0.32629749925 0.65253500075 0.57191000125
 O2 O 0.3273824975 0.53536500025 0.5432275012500001
 O2 O 0.42261750249999996 0.71463499975 0.70677249875
 O2 O 0.42261750249999996 0.71463499975 0.5432275012500001
 O2 O 0.3273824975 0.53536500025 0.70677249875
 O2 O 0.42261750249999996 0.53536500025 0.70677249875
 O2 O 0.3273824975 0.71463499975 0.5432275012500001
 O2 O 0.3273824975 0.71463499975 0.70677249875
 O2 O 0.42261750249999996 0.53536500025 0.5432275012500001
 O2 O 0.45238249750000004 0.66036500025 0.5432275012500001
 O2 O 0.2976175025 0.58963499975 0.70677249875
 O2 O 0.2976175025 0.58963499975 0.5432275012500001
 O2 O 0.45238249750000004 0.66036500025 0.70677249875
 O2 O 0.2976175025 0.66036500025 0.70677249875
 O2 O 0.45238249750000004 0.58963499975 0.5432275012500001
 O2 O 0.45238249750000004 0.58963499975 0.70677249875
 O2 O 0.2976175025 0.66036500025 0.5432275012500001
 O3 O 0.31933250275 0.5 0.55936750025
 O3 O 0.31933250275 0.75 0.55936750025
 O3 O 0.43066749725 0.5 0.69063249975
 O3 O 0.43066749725 0.75 0.69063249975
 O3 O 0.43066749725 0.5 0.55936750025
 O3 O 0.43066749725 0.75 0.55936750025
 O3 O 0.31933250275 0.5 0.69063249975
 O3 O 0.31933250275 0.75 0.69063249975
 O3 O 0.44433250275 0.625 0.55936750025
 O3 O 0.30566749725 0.625 0.69063249975
 O3 O 0.30566749725 0.625 0.55936750025
 O3 O 0.44433250275 0.625 0.69063249975
 O4 O 0.32323499775 0.52379499925 0.625
 O4 O 0.42676500225 0.72620500075 0.625
 O4 O 0.42676500225 0.52379499925 0.625
 O4 O 0.32323499775 0.72620500075 0.625
 O4 O 0.44823499775 0.64879499925 0.625
 O4 O 0.30176500225 0.60120500075 0.625
 O4 O 0.30176500225 0.64879499925 0.625
 O4 O 0.44823499775 0.60120500075 0.625
 O5 O 0.2781475 0.5 0.5590699985
 O5 O 0.2781475 0.75 0.5590699985
 O5 O 0.4718525 0.5 0.6909300015
 O5 O 0.4718525 0.75 0.6909300015
 O5 O 0.4718525 0.5 0.5590699985
 O5 O 0.4718525 0.75 0.5590699985
 O5 O 0.2781475 0.5 0.6909300015
 O5 O 0.2781475 0.75 0.6909300015
 O5 O 0.4031475 0.625 0.5590699985
 O5 O 0.3468525 0.625 0.6909300015
 O5 O 0.3468525 0.625 0.5590699985
 O5 O 0.4031475 0.625 0.6909300015
 O6 O 0.27415999950000003 0.5236249995 0.625
 O6 O 0.47584000049999997 0.7263750005 0.625
 O6 O 0.47584000049999997 0.5236249995 0.625
 O6 O 0.27415999950000003 0.7263750005 0.625
 O6 O 0.39915999950000003 0.6486249995 0.625
 O6 O 0.35084000049999997 0.6013750005 0.625
 O6 O 0.35084000049999997 0.6486249995 0.625
 O6 O 0.39915999950000003 0.6013750005 0.625
 O7 O 0.2698449995 0.53517999875 0.54336500175
 O7 O 0.48015500050000004 0.71482000125 0.70663499825
 O7 O 0.48015500050000004 0.71482000125 0.54336500175
 O7 O 0.2698449995 0.53517999875 0.70663499825
 O7 O 0.48015500050000004 0.53517999875 0.70663499825
 O7 O 0.2698449995 0.71482000125 0.54336500175
 O7 O 0.2698449995 0.71482000125 0.70663499825
 O7 O 0.48015500050000004 0.53517999875 0.54336500175
 O7 O 0.39484499949999996 0.66017999875 0.54336500175
 O7 O 0.3551550005 0.58982000125 0.70663499825
 O7 O 0.3551550005 0.58982000125 0.54336500175
 O7 O 0.39484499949999996 0.66017999875 0.70663499825
 O7 O 0.3551550005 0.66017999875 0.70663499825
 O7 O 0.39484499949999996 0.58982000125 0.54336500175
 O7 O 0.39484499949999996 0.58982000125 0.70663499825
 O7 O 0.3551550005 0.66017999875 0.54336500175
 O8 O 0.3125 0.5625 0.5
 O8 O 0.3125 0.5625 0.75
 O8 O 0.4375 0.6875 0.5
 O8 O 0.4375 0.6875 0.75
 O8 O 0.4375 0.5625 0.5
 O8 O 0.4375 0.5625 0.75
 O8 O 0.3125 0.6875 0.5
 O8 O 0.3125 0.6875 0.75
 O9 O 0.28091249975 0.56469249725 0.5
 O9 O 0.28091249975 0.56469249725 0.75
 O9 O 0.46908750025 0.68530750275 0.5
 O9 O 0.46908750025 0.68530750275 0.75
 O9 O 0.46908750025 0.56469249725 0.5
 O9 O 0.46908750025 0.56469249725 0.75
 O9 O 0.28091249975 0.68530750275 0.5
 O9 O 0.28091249975 0.68530750275 0.75
 O9 O 0.40591249975 0.68969249725 0.5
 O9 O 0.40591249975 0.68969249725 0.75
 O9 O 0.34408750025 0.56030750275 0.5
 O9 O 0.34408750025 0.56030750275 0.75
 O9 O 0.34408750025 0.68969249725 0.5
 O9 O 0.34408750025 0.68969249725 0.75
 O9 O 0.40591249975 0.56030750275 0.5
 O9 O 0.40591249975 0.56030750275 0.75
 O10 O 0.25 0.5565750002500001 0.5
 O10 O 0.25 0.5565750002500001 0.75
 O10 O 0.5 0.5565750002500001 0.5
 O10 O 0.5 0.5565750002500001 0.75
 O10 O 0.25 0.6934249997499999 0.5
 O10 O 0.25 0.6934249997499999 0.75
 O10 O 0.5 0.6934249997499999 0.5
 O10 O 0.5 0.6934249997499999 0.75
 O10 O 0.375 0.6815750002500001 0.5
 O10 O 0.375 0.6815750002500001 0.75
 O10 O 0.375 0.5684249997499999 0.5
 O10 O 0.375 0.5684249997499999 0.75
 O2 O 0.2976175025 0.58963499975 0.45677249875000003
 O2 O 0.2976175025 0.58963499975 0.7932275012500001
 O2 O 0.45238249750000004 0.66036500025 0.45677249875000003
 O2 O 0.45238249750000004 0.66036500025 0.7932275012500001
 O2 O 0.45238249750000004 0.58963499975 0.45677249875000003
 O2 O 0.45238249750000004 0.58963499975 0.7932275012500001
 O2 O 0.2976175025 0.66036500025 0.45677249875000003
 O2 O 0.2976175025 0.66036500025 0.7932275012500001
 O2 O 0.42261750249999996 0.71463499975 0.45677249875000003
 O2 O 0.42261750249999996 0.71463499975 0.7932275012500001
 O2 O 0.3273824975 0.53536500025 0.45677249875000003
 O2 O 0.3273824975 0.53536500025 0.7932275012500001
 O2 O 0.3273824975 0.71463499975 0.45677249875000003
 O2 O 0.3273824975 0.71463499975 0.7932275012500001
 O2 O 0.42261750249999996 0.53536500025 0.45677249875000003
 O2 O 0.42261750249999996 0.53536500025 0.7932275012500001
 O7 O 0.2698449995 0.53517999875 0.45663499825
 O7 O 0.2698449995 0.53517999875 0.79336500175
 O7 O 0.48015500050000004 0.71482000125 0.45663499825
 O7 O 0.48015500050000004 0.71482000125 0.79336500175
 O7 O 0.48015500050000004 0.53517999875 0.45663499825
 O7 O 0.48015500050000004 0.53517999875 0.79336500175
 O7 O 0.2698449995 0.71482000125 0.45663499825
 O7 O 0.2698449995 0.71482000125 0.79336500175
 O7 O 0.39484499949999996 0.66017999875 0.45663499825
 O7 O 0.39484499949999996 0.66017999875 0.79336500175
 O7 O 0.3551550005 0.58982000125 0.45663499825
 O7 O 0.3551550005 0.58982000125 0.79336500175
 O7 O 0.3551550005 0.66017999875 0.45663499825
 O7 O 0.3551550005 0.66017999875 0.79336500175
 O7 O 0.39484499949999996 0.58982000125 0.45663499825
 O7 O 0.39484499949999996 0.58982000125 0.79336500175
 Si1 Si 0.5672350005 0.5216099992500001 0.5748350025
 Si1 Si 0.6827649995 0.7283900007499999 0.6751649975
 Si1 Si 0.6827649995 0.7283900007499999 0.5748350025
 Si1 Si 0.5672350005 0.5216099992500001 0.6751649975
 Si1 Si 0.6827649995 0.5216099992500001 0.6751649975
 Si1 Si 0.5672350005 0.7283900007499999 0.5748350025
 Si1 Si 0.5672350005 0.7283900007499999 0.6751649975
 Si1 Si 0.6827649995 0.5216099992500001 0.5748350025
 Si1 Si 0.6922350005 0.6466099992500001 0.5748350025
 Si1 Si 0.5577649995 0.6033900007499999 0.6751649975
 Si1 Si 0.5577649995 0.6033900007499999 0.5748350025
 Si1 Si 0.6922350005 0.6466099992500001 0.6751649975
 Si1 Si 0.5577649995 0.6466099992500001 0.6751649975
 Si1 Si 0.6922350005 0.6033900007499999 0.5748350025
 Si1 Si 0.6922350005 0.6033900007499999 0.6751649975
 Si1 Si 0.5577649995 0.6466099992500001 0.5748350025
 Si2 Si 0.5301799997500001 0.5215750002499999 0.574832499
 Si2 Si 0.71982000025 0.72842499975 0.675167501
 Si2 Si 0.71982000025 0.72842499975 0.574832499
 Si2 Si 0.5301799997500001 0.5215750002499999 0.675167501
 Si2 Si 0.71982000025 0.5215750002499999 0.675167501
 Si2 Si 0.5301799997500001 0.72842499975 0.574832499
 Si2 Si 0.5301799997500001 0.72842499975 0.675167501
 Si2 Si 0.71982000025 0.5215750002499999 0.574832499
 Si2 Si 0.65517999975 0.64657500025 0.574832499
 Si2 Si 0.5948200002499999 0.60342499975 0.675167501
 Si2 Si 0.5948200002499999 0.60342499975 0.574832499
 Si2 Si 0.65517999975 0.64657500025 0.675167501
 Si2 Si 0.5948200002499999 0.64657500025 0.675167501
 Si2 Si 0.65517999975 0.60342499975 0.574832499
 Si2 Si 0.65517999975 0.60342499975 0.675167501
 Si2 Si 0.5948200002499999 0.64657500025 0.574832499
 Si3 Si 0.547362499 0.5764449985 0.5
 Si3 Si 0.547362499 0.5764449985 0.75
 Si3 Si 0.702637501 0.6735550015 0.5
 Si3 Si 0.702637501 0.6735550015 0.75
 Si3 Si 0.702637501 0.5764449985 0.5
 Si3 Si 0.702637501 0.5764449985 0.75
 Si3 Si 0.547362499 0.6735550015 0.5
 Si3 Si 0.547362499 0.6735550015 0.75
 Si3 Si 0.672362499 0.7014449985 0.5
 Si3 Si 0.672362499 0.7014449985 0.75
 Si3 Si 0.577637501 0.5485550015 0.5
 Si3 Si 0.577637501 0.5485550015 0.75
 Si3 Si 0.577637501 0.7014449985 0.5
 Si3 Si 0.577637501 0.7014449985 0.75
 Si3 Si 0.672362499 0.5485550015 0.5
 Si3 Si 0.672362499 0.5485550015 0.75
 Si4 Si 0.5178549997499999 0.54804499825 0.5
 Si4 Si 0.5178549997499999 0.54804499825 0.75
 Si4 Si 0.7321450002500001 0.70195500175 0.5
 Si4 Si 0.7321450002500001 0.70195500175 0.75
 Si4 Si 0.7321450002500001 0.54804499825 0.5
 Si4 Si 0.7321450002500001 0.54804499825 0.75
 Si4 Si 0.5178549997499999 0.70195500175 0.5
 Si4 Si 0.5178549997499999 0.70195500175 0.75
 Si4 Si 0.6428549997499999 0.67304499825 0.5
 Si4 Si 0.6428549997499999 0.67304499825 0.75
 Si4 Si 0.6071450002500001 0.57695500175 0.5
 Si4 Si 0.6071450002500001 0.57695500175 0.75
 Si4 Si 0.6071450002500001 0.67304499825 0.5
 Si4 Si 0.6071450002500001 0.67304499825 0.75
 Si4 Si 0.6428549997499999 0.57695500175 0.5
 Si4 Si 0.6428549997499999 0.57695500175 0.75
 O1 O 0.5487025007499999 0.5275350007499999 0.57191000125
 O1 O 0.7012974992500001 0.72246499925 0.67808999875
 O1 O 0.7012974992500001 0.72246499925 0.57191000125
 O1 O 0.5487025007499999 0.5275350007499999 0.67808999875
 O1 O 0.7012974992500001 0.5275350007499999 0.67808999875
 O1 O 0.5487025007499999 0.72246499925 0.57191000125
 O1 O 0.5487025007499999 0.72246499925 0.67808999875
 O1 O 0.7012974992500001 0.5275350007499999 0.57191000125
 O1 O 0.6737025007499999 0.65253500075 0.57191000125
 O1 O 0.5762974992500001 0.5974649992500001 0.67808999875
 O1 O 0.5762974992500001 0.5974649992500001 0.57191000125
 O1 O 0.6737025007499999 0.65253500075 0.67808999875
 O1 O 0.5762974992500001 0.65253500075 0.67808999875
 O1 O 0.6737025007499999 0.5974649992500001 0.57191000125
 O1 O 0.6737025007499999 0.5974649992500001 0.67808999875
 O1 O 0.5762974992500001 0.65253500075 0.57191000125
 O2 O 0.5773824974999999 0.53536500025 0.5432275012500001
 O2 O 0.6726175025 0.71463499975 0.70677249875
 O2 O 0.6726175025 0.71463499975 0.5432275012500001
 O2 O 0.5773824974999999 0.53536500025 0.70677249875
 O2 O 0.6726175025 0.53536500025 0.70677249875
 O2 O 0.5773824974999999 0.71463499975 0.5432275012500001
 O2 O 0.5773824974999999 0.71463499975 0.70677249875
 O2 O 0.6726175025 0.53536500025 0.5432275012500001
 O2 O 0.7023824975 0.66036500025 0.5432275012500001
 O2 O 0.5476175025000001 0.58963499975 0.70677249875
 O2 O 0.5476175025000001 0.58963499975 0.5432275012500001
 O2 O 0.7023824975 0.66036500025 0.70677249875
 O2 O 0.5476175025000001 0.66036500025 0.70677249875
 O2 O 0.7023824975 0.58963499975 0.5432275012500001
 O2 O 0.7023824975 0.58963499975 0.70677249875
 O2 O 0.5476175025000001 0.66036500025 0.5432275012500001
 O3 O 0.56933250275 0.5 0.55936750025
 O3 O 0.56933250275 0.75 0.55936750025
 O3 O 0.68066749725 0.5 0.69063249975
 O3 O 0.68066749725 0.75 0.69063249975
 O3 O 0.68066749725 0.5 0.55936750025
 O3 O 0.68066749725 0.75 0.55936750025
 O3 O 0.56933250275 0.5 0.69063249975
 O3 O 0.56933250275 0.75 0.69063249975
 O3 O 0.69433250275 0.625 0.55936750025
 O3 O 0.55566749725 0.625 0.69063249975
 O3 O 0.55566749725 0.625 0.55936750025
 O3 O 0.69433250275 0.625 0.69063249975
 O4 O 0.57323499775 0.52379499925 0.625
 O4 O 0.67676500225 0.72620500075 0.625
 O4 O 0.67676500225 0.52379499925 0.625
 O4 O 0.57323499775 0.72620500075 0.625
 O4 O 0.69823499775 0.64879499925 0.625
 O4 O 0.55176500225 0.60120500075 0.625
 O4 O 0.55176500225 0.64879499925 0.625
 O4 O 0.69823499775 0.60120500075 0.625
 O5 O 0.5281475 0.5 0.5590699985
 O5 O 0.5281475 0.75 0.5590699985
 O5 O 0.7218525 0.5 0.6909300015
 O5 O 0.7218525 0.75 0.6909300015
 O5 O 0.7218525 0.5 0.5590699985
 O5 O 0.7218525 0.75 0.5590699985
 O5 O 0.5281475 0.5 0.6909300015
 O5 O 0.5281475 0.75 0.6909300015
 O5 O 0.6531475 0.625 0.5590699985
 O5 O 0.5968525 0.625 0.6909300015
 O5 O 0.5968525 0.625 0.5590699985
 O5 O 0.6531475 0.625 0.6909300015
 O6 O 0.5241599995 0.5236249995 0.625
 O6 O 0.7258400005 0.7263750005 0.625
 O6 O 0.7258400005 0.5236249995 0.625
 O6 O 0.5241599995 0.7263750005 0.625
 O6 O 0.6491599995 0.6486249995 0.625
 O6 O 0.6008400005 0.6013750005 0.625
 O6 O 0.6008400005 0.6486249995 0.625
 O6 O 0.6491599995 0.6013750005 0.625
 O7 O 0.5198449995000001 0.53517999875 0.54336500175
 O7 O 0.7301550005 0.71482000125 0.70663499825
 O7 O 0.7301550005 0.71482000125 0.54336500175
 O7 O 0.5198449995000001 0.53517999875 0.70663499825
 O7 O 0.7301550005 0.53517999875 0.70663499825
 O7 O 0.5198449995000001 0.71482000125 0.54336500175
 O7 O 0.5198449995000001 0.71482000125 0.70663499825
 O7 O 0.7301550005 0.53517999875 0.54336500175
 O7 O 0.6448449995 0.66017999875 0.54336500175
 O7 O 0.6051550004999999 0.58982000125 0.70663499825
 O7 O 0.6051550004999999 0.58982000125 0.54336500175
 O7 O 0.6448449995 0.66017999875 0.70663499825
 O7 O 0.6051550004999999 0.66017999875 0.70663499825
 O7 O 0.6448449995 0.58982000125 0.54336500175
 O7 O 0.6448449995 0.58982000125 0.70663499825
 O7 O 0.6051550004999999 0.66017999875 0.54336500175
 O8 O 0.5625 0.5625 0.5
 O8 O 0.5625 0.5625 0.75
 O8 O 0.6875 0.6875 0.5
 O8 O 0.6875 0.6875 0.75
 O8 O 0.6875 0.5625 0.5
 O8 O 0.6875 0.5625 0.75
 O8 O 0.5625 0.6875 0.5
 O8 O 0.5625 0.6875 0.75
 O9 O 0.53091249975 0.56469249725 0.5
 O9 O 0.53091249975 0.56469249725 0.75
 O9 O 0.71908750025 0.68530750275 0.5
 O9 O 0.71908750025 0.68530750275 0.75
 O9 O 0.71908750025 0.56469249725 0.5
 O9 O 0.71908750025 0.56469249725 0.75
 O9 O 0.53091249975 0.68530750275 0.5
 O9 O 0.53091249975 0.68530750275 0.75
 O9 O 0.65591249975 0.68969249725 0.5
 O9 O 0.65591249975 0.68969249725 0.75
 O9 O 0.59408750025 0.56030750275 0.5
 O9 O 0.59408750025 0.56030750275 0.75
 O9 O 0.59408750025 0.68969249725 0.5
 O9 O 0.59408750025 0.68969249725 0.75
 O9 O 0.65591249975 0.56030750275 0.5
 O9 O 0.65591249975 0.56030750275 0.75
 O10 O 0.5 0.5565750002500001 0.5
 O10 O 0.5 0.5565750002500001 0.75
 O10 O 0.75 0.5565750002500001 0.5
 O10 O 0.75 0.5565750002500001 0.75
 O10 O 0.5 0.6934249997499999 0.5
 O10 O 0.5 0.6934249997499999 0.75
 O10 O 0.75 0.6934249997499999 0.5
 O10 O 0.75 0.6934249997499999 0.75
 O10 O 0.625 0.6815750002500001 0.5
 O10 O 0.625 0.6815750002500001 0.75
 O10 O 0.625 0.5684249997499999 0.5
 O10 O 0.625 0.5684249997499999 0.75
 O2 O 0.5476175025000001 0.58963499975 0.45677249875000003
 O2 O 0.5476175025000001 0.58963499975 0.7932275012500001
 O2 O 0.7023824975 0.66036500025 0.45677249875000003
 O2 O 0.7023824975 0.66036500025 0.7932275012500001
 O2 O 0.7023824975 0.58963499975 0.45677249875000003
 O2 O 0.7023824975 0.58963499975 0.7932275012500001
 O2 O 0.5476175025000001 0.66036500025 0.45677249875000003
 O2 O 0.5476175025000001 0.66036500025 0.7932275012500001
 O2 O 0.6726175025 0.71463499975 0.45677249875000003
 O2 O 0.6726175025 0.71463499975 0.7932275012500001
 O2 O 0.5773824974999999 0.53536500025 0.45677249875000003
 O2 O 0.5773824974999999 0.53536500025 0.7932275012500001
 O2 O 0.5773824974999999 0.71463499975 0.45677249875000003
 O2 O 0.5773824974999999 0.71463499975 0.7932275012500001
 O2 O 0.6726175025 0.53536500025 0.45677249875000003
 O2 O 0.6726175025 0.53536500025 0.7932275012500001
 O7 O 0.5198449995000001 0.53517999875 0.45663499825
 O7 O 0.5198449995000001 0.53517999875 0.79336500175
 O7 O 0.7301550005 0.71482000125 0.45663499825
 O7 O 0.7301550005 0.71482000125 0.79336500175
 O7 O 0.7301550005 0.53517999875 0.45663499825
 O7 O 0.7301550005 0.53517999875 0.79336500175
 O7 O 0.5198449995000001 0.71482000125 0.45663499825
 O7 O 0.5198449995000001 0.71482000125 0.79336500175
 O7 O 0.6448449995 0.66017999875 0.45663499825
 O7 O 0.6448449995 0.66017999875 0.79336500175
 O7 O 0.6051550004999999 0.58982000125 0.45663499825
 O7 O 0.6051550004999999 0.58982000125 0.79336500175
 O7 O 0.6051550004999999 0.66017999875 0.45663499825
 O7 O 0.6051550004999999 0.66017999875 0.79336500175
 O7 O 0.6448449995 0.58982000125 0.45663499825
 O7 O 0.6448449995 0.58982000125 0.79336500175
 Si1 Si 0.8172350005 0.5216099992500001 0.5748350025
 Si1 Si 0.9327649995 0.7283900007499999 0.6751649975
 Si1 Si 0.9327649995 0.7283900007499999 0.5748350025
 Si1 Si 0.8172350005 0.5216099992500001 0.6751649975
 Si1 Si 0.9327649995 0.5216099992500001 0.6751649975
 Si1 Si 0.8172350005 0.7283900007499999 0.5748350025
 Si1 Si 0.8172350005 0.7283900007499999 0.6751649975
 Si1 Si 0.9327649995 0.5216099992500001 0.5748350025
 Si1 Si 0.9422350005 0.6466099992500001 0.5748350025
 Si1 Si 0.8077649995 0.6033900007499999 0.6751649975
 Si1 Si 0.8077649995 0.6033900007499999 0.5748350025
 Si1 Si 0.9422350005 0.6466099992500001 0.6751649975
 Si1 Si 0.8077649995 0.6466099992500001 0.6751649975
 Si1 Si 0.9422350005 0.6033900007499999 0.5748350025
 Si1 Si 0.9422350005 0.6033900007499999 0.6751649975
 Si1 Si 0.8077649995 0.6466099992500001 0.5748350025
 Si2 Si 0.7801799997500001 0.5215750002499999 0.574832499
 Si2 Si 0.96982000025 0.72842499975 0.675167501
 Si2 Si 0.96982000025 0.72842499975 0.574832499
 Si2 Si 0.7801799997500001 0.5215750002499999 0.675167501
 Si2 Si 0.96982000025 0.5215750002499999 0.675167501
 Si2 Si 0.7801799997500001 0.72842499975 0.574832499
 Si2 Si 0.7801799997500001 0.72842499975 0.675167501
 Si2 Si 0.96982000025 0.5215750002499999 0.574832499
 Si2 Si 0.90517999975 0.64657500025 0.574832499
 Si2 Si 0.8448200002499999 0.60342499975 0.675167501
 Si2 Si 0.8448200002499999 0.60342499975 0.574832499
 Si2 Si 0.90517999975 0.64657500025 0.675167501
 Si2 Si 0.8448200002499999 0.64657500025 0.675167501
 Si2 Si 0.90517999975 0.60342499975 0.574832499
 Si2 Si 0.90517999975 0.60342499975 0.675167501
 Si2 Si 0.8448200002499999 0.64657500025 0.574832499
 Si3 Si 0.797362499 0.5764449985 0.5
 Si3 Si 0.797362499 0.5764449985 0.75
 Si3 Si 0.952637501 0.6735550015 0.5
 Si3 Si 0.952637501 0.6735550015 0.75
 Si3 Si 0.952637501 0.5764449985 0.5
 Si3 Si 0.952637501 0.5764449985 0.75
 Si3 Si 0.797362499 0.6735550015 0.5
 Si3 Si 0.797362499 0.6735550015 0.75
 Si3 Si 0.922362499 0.7014449985 0.5
 Si3 Si 0.922362499 0.7014449985 0.75
 Si3 Si 0.827637501 0.5485550015 0.5
 Si3 Si 0.827637501 0.5485550015 0.75
 Si3 Si 0.827637501 0.7014449985 0.5
 Si3 Si 0.827637501 0.7014449985 0.75
 Si3 Si 0.922362499 0.5485550015 0.5
 Si3 Si 0.922362499 0.5485550015 0.75
 Si4 Si 0.7678549997499999 0.54804499825 0.5
 Si4 Si 0.7678549997499999 0.54804499825 0.75
 Si4 Si 0.9821450002500001 0.70195500175 0.5
 Si4 Si 0.9821450002500001 0.70195500175 0.75
 Si4 Si 0.9821450002500001 0.54804499825 0.5
 Si4 Si 0.9821450002500001 0.54804499825 0.75
 Si4 Si 0.7678549997499999 0.70195500175 0.5
 Si4 Si 0.7678549997499999 0.70195500175 0.75
 Si4 Si 0.8928549997499999 0.67304499825 0.5
 Si4 Si 0.8928549997499999 0.67304499825 0.75
 Si4 Si 0.8571450002500001 0.57695500175 0.5
 Si4 Si 0.8571450002500001 0.57695500175 0.75
 Si4 Si 0.8571450002500001 0.67304499825 0.5
 Si4 Si 0.8571450002500001 0.67304499825 0.75
 Si4 Si 0.8928549997499999 0.57695500175 0.5
 Si4 Si 0.8928549997499999 0.57695500175 0.75
 O1 O 0.7987025007499999 0.5275350007499999 0.57191000125
 O1 O 0.9512974992500001 0.72246499925 0.67808999875
 O1 O 0.9512974992500001 0.72246499925 0.57191000125
 O1 O 0.7987025007499999 0.5275350007499999 0.67808999875
 O1 O 0.9512974992500001 0.5275350007499999 0.67808999875
 O1 O 0.7987025007499999 0.72246499925 0.57191000125
 O1 O 0.7987025007499999 0.72246499925 0.67808999875
 O1 O 0.9512974992500001 0.5275350007499999 0.57191000125
 O1 O 0.9237025007499999 0.65253500075 0.57191000125
 O1 O 0.8262974992500001 0.5974649992500001 0.67808999875
 O1 O 0.8262974992500001 0.5974649992500001 0.57191000125
 O1 O 0.9237025007499999 0.65253500075 0.67808999875
 O1 O 0.8262974992500001 0.65253500075 0.67808999875
 O1 O 0.9237025007499999 0.5974649992500001 0.57191000125
 O1 O 0.9237025007499999 0.5974649992500001 0.67808999875
 O1 O 0.8262974992500001 0.65253500075 0.57191000125
 O2 O 0.8273824974999999 0.53536500025 0.5432275012500001
 O2 O 0.9226175025 0.71463499975 0.70677249875
 O2 O 0.9226175025 0.71463499975 0.5432275012500001
 O2 O 0.8273824974999999 0.53536500025 0.70677249875
 O2 O 0.9226175025 0.53536500025 0.70677249875
 O2 O 0.8273824974999999 0.71463499975 0.5432275012500001
 O2 O 0.8273824974999999 0.71463499975 0.70677249875
 O2 O 0.9226175025 0.53536500025 0.5432275012500001
 O2 O 0.9523824975 0.66036500025 0.5432275012500001
 O2 O 0.7976175025000001 0.58963499975 0.70677249875
 O2 O 0.7976175025000001 0.58963499975 0.5432275012500001
 O2 O 0.9523824975 0.66036500025 0.70677249875
 O2 O 0.7976175025000001 0.66036500025 0.70677249875
 O2 O 0.9523824975 0.58963499975 0.5432275012500001
 O2 O 0.9523824975 0.58963499975 0.70677249875
 O2 O 0.7976175025000001 0.66036500025 0.5432275012500001
 O3 O 0.81933250275 0.5 0.55936750025
 O3 O 0.81933250275 0.75 0.55936750025
 O3 O 0.93066749725 0.5 0.69063249975
 O3 O 0.93066749725 0.75 0.69063249975
 O3 O 0.93066749725 0.5 0.55936750025
 O3 O 0.93066749725 0.75 0.55936750025
 O3 O 0.81933250275 0.5 0.69063249975
 O3 O 0.81933250275 0.75 0.69063249975
 O3 O 0.94433250275 0.625 0.55936750025
 O3 O 0.80566749725 0.625 0.69063249975
 O3 O 0.80566749725 0.625 0.55936750025
 O3 O 0.94433250275 0.625 0.69063249975
 O4 O 0.82323499775 0.52379499925 0.625
 O4 O 0.92676500225 0.72620500075 0.625
 O4 O 0.92676500225 0.52379499925 0.625
 O4 O 0.82323499775 0.72620500075 0.625
 O4 O 0.94823499775 0.64879499925 0.625
 O4 O 0.80176500225 0.60120500075 0.625
 O4 O 0.80176500225 0.64879499925 0.625
 O4 O 0.94823499775 0.60120500075 0.625
 O5 O 0.7781475 0.5 0.5590699985
 O5 O 0.7781475 0.75 0.5590699985
 O5 O 0.9718525 0.5 0.6909300015
 O5 O 0.9718525 0.75 0.6909300015
 O5 O 0.9718525 0.5 0.5590699985
 O5 O 0.9718525 0.75 0.5590699985
 O5 O 0.7781475 0.5 0.6909300015
 O5 O 0.7781475 0.75 0.6909300015
 O5 O 0.9031475 0.625 0.5590699985
 O5 O 0.8468525 0.625 0.6909300015
 O5 O 0.8468525 0.625 0.5590699985
 O5 O 0.9031475 0.625 0.6909300015
 O6 O 0.7741599995 0.5236249995 0.625
 O6 O 0.9758400005 0.7263750005 0.625
 O6 O 0.9758400005 0.5236249995 0.625
 O6 O 0.7741599995 0.7263750005 0.625
 O6 O 0.8991599995 0.6486249995 0.625
 O6 O 0.8508400005 0.6013750005 0.625
 O6 O 0.8508400005 0.6486249995 0.625
 O6 O 0.8991599995 0.6013750005 0.625
 O7 O 0.7698449995000001 0.53517999875 0.54336500175
 O7 O 0.9801550005 0.71482000125 0.70663499825
 O7 O 0.9801550005 0.71482000125 0.54336500175
 O7 O 0.7698449995000001 0.53517999875 0.70663499825
 O7 O 0.9801550005 0.53517999875 0.70663499825
 O7 O 0.7698449995000001 0.71482000125 0.54336500175
 O7 O 0.7698449995000001 0.71482000125 0.70663499825
 O7 O 0.9801550005 0.53517999875 0.54336500175
 O7 O 0.8948449995 0.66017999875 0.54336500175
 O7 O 0.8551550004999999 0.58982000125 0.70663499825
 O7 O 0.8551550004999999 0.58982000125 0.54336500175
 O7 O 0.8948449995 0.66017999875 0.70663499825
 O7 O 0.8551550004999999 0.66017999875 0.70663499825
 O7 O 0.8948449995 0.58982000125 0.54336500175
 O7 O 0.8948449995 0.58982000125 0.70663499825
 O7 O 0.8551550004999999 0.66017999875 0.54336500175
 O8 O 0.8125 0.5625 0.5
 O8 O 0.8125 0.5625 0.75
 O8 O 0.9375 0.6875 0.5
 O8 O 0.9375 0.6875 0.75
 O8 O 0.9375 0.5625 0.5
 O8 O 0.9375 0.5625 0.75
 O8 O 0.8125 0.6875 0.5
 O8 O 0.8125 0.6875 0.75
 O9 O 0.78091249975 0.56469249725 0.5
 O9 O 0.78091249975 0.56469249725 0.75
 O9 O 0.96908750025 0.68530750275 0.5
 O9 O 0.96908750025 0.68530750275 0.75
 O9 O 0.96908750025 0.56469249725 0.5
 O9 O 0.96908750025 0.56469249725 0.75
 O9 O 0.78091249975 0.68530750275 0.5
 O9 O 0.78091249975 0.68530750275 0.75
 O9 O 0.90591249975 0.68969249725 0.5
 O9 O 0.90591249975 0.68969249725 0.75
 O9 O 0.84408750025 0.56030750275 0.5
 O9 O 0.84408750025 0.56030750275 0.75
 O9 O 0.84408750025 0.68969249725 0.5
 O9 O 0.84408750025 0.68969249725 0.75
 O9 O 0.90591249975 0.56030750275 0.5
 O9 O 0.90591249975 0.56030750275 0.75
 O10 O 0.75 0.5565750002500001 0.5
 O10 O 0.75 0.5565750002500001 0.75
 O10 O 1.0 0.5565750002500001 0.5
 O10 O 1.0 0.5565750002500001 0.75
 O10 O 0.75 0.6934249997499999 0.5
 O10 O 0.75 0.6934249997499999 0.75
 O10 O 1.0 0.6934249997499999 0.5
 O10 O 1.0 0.6934249997499999 0.75
 O10 O 0.875 0.6815750002500001 0.5
 O10 O 0.875 0.6815750002500001 0.75
 O10 O 0.875 0.5684249997499999 0.5
 O10 O 0.875 0.5684249997499999 0.75
 O2 O 0.7976175025000001 0.58963499975 0.45677249875000003
 O2 O 0.7976175025000001 0.58963499975 0.7932275012500001
 O2 O 0.9523824975 0.66036500025 0.45677249875000003
 O2 O 0.9523824975 0.66036500025 0.7932275012500001
 O2 O 0.9523824975 0.58963499975 0.45677249875000003
 O2 O 0.9523824975 0.58963499975 0.7932275012500001
 O2 O 0.7976175025000001 0.66036500025 0.45677249875000003
 O2 O 0.7976175025000001 0.66036500025 0.7932275012500001
 O2 O 0.9226175025 0.71463499975 0.45677249875000003
 O2 O 0.9226175025 0.71463499975 0.7932275012500001
 O2 O 0.8273824974999999 0.53536500025 0.45677249875000003
 O2 O 0.8273824974999999 0.53536500025 0.7932275012500001
 O2 O 0.8273824974999999 0.71463499975 0.45677249875000003
 O2 O 0.8273824974999999 0.71463499975 0.7932275012500001
 O2 O 0.9226175025 0.53536500025 0.45677249875000003
 O2 O 0.9226175025 0.53536500025 0.7932275012500001
 O7 O 0.7698449995000001 0.53517999875 0.45663499825
 O7 O 0.7698449995000001 0.53517999875 0.79336500175
 O7 O 0.9801550005 0.71482000125 0.45663499825
 O7 O 0.9801550005 0.71482000125 0.79336500175
 O7 O 0.9801550005 0.53517999875 0.45663499825
 O7 O 0.9801550005 0.53517999875 0.79336500175
 O7 O 0.7698449995000001 0.71482000125 0.45663499825
 O7 O 0.7698449995000001 0.71482000125 0.79336500175
 O7 O 0.8948449995 0.66017999875 0.45663499825
 O7 O 0.8948449995 0.66017999875 0.79336500175
 O7 O 0.8551550004999999 0.58982000125 0.45663499825
 O7 O 0.8551550004999999 0.58982000125 0.79336500175
 O7 O 0.8551550004999999 0.66017999875 0.45663499825
 O7 O 0.8551550004999999 0.66017999875 0.79336500175
 O7 O 0.8948449995 0.58982000125 0.45663499825
 O7 O 0.8948449995 0.58982000125 0.79336500175
 Si1 Si 0.0672350005 0.7716099992500001 0.5748350025
 Si1 Si 0.1827649995 0.9783900007499999 0.6751649975
 Si1 Si 0.1827649995 0.9783900007499999 0.5748350025
 Si1 Si 0.0672350005 0.7716099992500001 0.6751649975
 Si1 Si 0.1827649995 0.7716099992500001 0.6751649975
 Si1 Si 0.0672350005 0.9783900007499999 0.5748350025
 Si1 Si 0.0672350005 0.9783900007499999 0.6751649975
 Si1 Si 0.1827649995 0.7716099992500001 0.5748350025
 Si1 Si 0.1922350005 0.8966099992500001 0.5748350025
 Si1 Si 0.0577649995 0.8533900007499999 0.6751649975
 Si1 Si 0.0577649995 0.8533900007499999 0.5748350025
 Si1 Si 0.1922350005 0.8966099992500001 0.6751649975
 Si1 Si 0.0577649995 0.8966099992500001 0.6751649975
 Si1 Si 0.1922350005 0.8533900007499999 0.5748350025
 Si1 Si 0.1922350005 0.8533900007499999 0.6751649975
 Si1 Si 0.0577649995 0.8966099992500001 0.5748350025
 Si2 Si 0.03017999975 0.7715750002499999 0.574832499
 Si2 Si 0.21982000025 0.97842499975 0.675167501
 Si2 Si 0.21982000025 0.97842499975 0.574832499
 Si2 Si 0.03017999975 0.7715750002499999 0.675167501
 Si2 Si 0.21982000025 0.7715750002499999 0.675167501
 Si2 Si 0.03017999975 0.97842499975 0.574832499
 Si2 Si 0.03017999975 0.97842499975 0.675167501
 Si2 Si 0.21982000025 0.7715750002499999 0.574832499
 Si2 Si 0.15517999975 0.89657500025 0.574832499
 Si2 Si 0.09482000025 0.85342499975 0.675167501
 Si2 Si 0.09482000025 0.85342499975 0.574832499
 Si2 Si 0.15517999975 0.89657500025 0.675167501
 Si2 Si 0.09482000025 0.89657500025 0.675167501
 Si2 Si 0.15517999975 0.85342499975 0.574832499
 Si2 Si 0.15517999975 0.85342499975 0.675167501
 Si2 Si 0.09482000025 0.89657500025 0.574832499
 Si3 Si 0.047362499 0.8264449985 0.5
 Si3 Si 0.047362499 0.8264449985 0.75
 Si3 Si 0.202637501 0.9235550015 0.5
 Si3 Si 0.202637501 0.9235550015 0.75
 Si3 Si 0.202637501 0.8264449985 0.5
 Si3 Si 0.202637501 0.8264449985 0.75
 Si3 Si 0.047362499 0.9235550015 0.5
 Si3 Si 0.047362499 0.9235550015 0.75
 Si3 Si 0.172362499 0.9514449985 0.5
 Si3 Si 0.172362499 0.9514449985 0.75
 Si3 Si 0.077637501 0.7985550015 0.5
 Si3 Si 0.077637501 0.7985550015 0.75
 Si3 Si 0.077637501 0.9514449985 0.5
 Si3 Si 0.077637501 0.9514449985 0.75
 Si3 Si 0.172362499 0.7985550015 0.5
 Si3 Si 0.172362499 0.7985550015 0.75
 Si4 Si 0.01785499975 0.79804499825 0.5
 Si4 Si 0.01785499975 0.79804499825 0.75
 Si4 Si 0.23214500025 0.95195500175 0.5
 Si4 Si 0.23214500025 0.95195500175 0.75
 Si4 Si 0.23214500025 0.79804499825 0.5
 Si4 Si 0.23214500025 0.79804499825 0.75
 Si4 Si 0.01785499975 0.95195500175 0.5
 Si4 Si 0.01785499975 0.95195500175 0.75
 Si4 Si 0.14285499975 0.92304499825 0.5
 Si4 Si 0.14285499975 0.92304499825 0.75
 Si4 Si 0.10714500025 0.82695500175 0.5
 Si4 Si 0.10714500025 0.82695500175 0.75
 Si4 Si 0.10714500025 0.92304499825 0.5
 Si4 Si 0.10714500025 0.92304499825 0.75
 Si4 Si 0.14285499975 0.82695500175 0.5
 Si4 Si 0.14285499975 0.82695500175 0.75
 O1 O 0.04870250075 0.7775350007499999 0.57191000125
 O1 O 0.20129749925 0.97246499925 0.67808999875
 O1 O 0.20129749925 0.97246499925 0.57191000125
 O1 O 0.04870250075 0.7775350007499999 0.67808999875
 O1 O 0.20129749925 0.7775350007499999 0.67808999875
 O1 O 0.04870250075 0.97246499925 0.57191000125
 O1 O 0.04870250075 0.97246499925 0.67808999875
 O1 O 0.20129749925 0.7775350007499999 0.57191000125
 O1 O 0.17370250075 0.90253500075 0.57191000125
 O1 O 0.07629749925 0.8474649992500001 0.67808999875
 O1 O 0.07629749925 0.8474649992500001 0.57191000125
 O1 O 0.17370250075 0.90253500075 0.67808999875
 O1 O 0.07629749925 0.90253500075 0.67808999875
 O1 O 0.17370250075 0.8474649992500001 0.57191000125
 O1 O 0.17370250075 0.8474649992500001 0.67808999875
 O1 O 0.07629749925 0.90253500075 0.57191000125
 O2 O 0.0773824975 0.78536500025 0.5432275012500001
 O2 O 0.1726175025 0.96463499975 0.70677249875
 O2 O 0.1726175025 0.96463499975 0.5432275012500001
 O2 O 0.0773824975 0.78536500025 0.70677249875
 O2 O 0.1726175025 0.78536500025 0.70677249875
 O2 O 0.0773824975 0.96463499975 0.5432275012500001
 O2 O 0.0773824975 0.96463499975 0.70677249875
 O2 O 0.1726175025 0.78536500025 0.5432275012500001
 O2 O 0.2023824975 0.91036500025 0.5432275012500001
 O2 O 0.0476175025 0.83963499975 0.70677249875
 O2 O 0.0476175025 0.83963499975 0.5432275012500001
 O2 O 0.2023824975 0.91036500025 0.70677249875
 O2 O 0.0476175025 0.91036500025 0.70677249875
 O2 O 0.2023824975 0.83963499975 0.5432275012500001
 O2 O 0.2023824975 0.83963499975 0.70677249875
 O2 O 0.0476175025 0.91036500025 0.5432275012500001
 O3 O 0.06933250275 0.75 0.55936750025
 O3 O 0.06933250275 1.0 0.55936750025
 O3 O 0.18066749725 0.75 0.69063249975
 O3 O 0.18066749725 1.0 0.69063249975
 O3 O 0.18066749725 0.75 0.55936750025
 O3 O 0.18066749725 1.0 0.55936750025
 O3 O 0.06933250275 0.75 0.69063249975
 O3 O 0.06933250275 1.0 0.69063249975
 O3 O 0.19433250275 0.875 0.55936750025
 O3 O 0.05566749725 0.875 0.69063249975
 O3 O 0.05566749725 0.875 0.55936750025
 O3 O 0.19433250275 0.875 0.69063249975
 O4 O 0.07323499775 0.77379499925 0.625
 O4 O 0.17676500225 0.97620500075 0.625
 O4 O 0.17676500225 0.77379499925 0.625
 O4 O 0.07323499775 0.97620500075 0.625
 O4 O 0.19823499775 0.89879499925 0.625
 O4 O 0.05176500225 0.85120500075 0.625
 O4 O 0.05176500225 0.89879499925 0.625
 O4 O 0.19823499775 0.85120500075 0.625
 O5 O 0.0281475 0.75 0.5590699985
 O5 O 0.0281475 1.0 0.5590699985
 O5 O 0.2218525 0.75 0.6909300015
 O5 O 0.2218525 1.0 0.6909300015
 O5 O 0.2218525 0.75 0.5590699985
 O5 O 0.2218525 1.0 0.5590699985
 O5 O 0.0281475 0.75 0.6909300015
 O5 O 0.0281475 1.0 0.6909300015
 O5 O 0.1531475 0.875 0.5590699985
 O5 O 0.0968525 0.875 0.6909300015
 O5 O 0.0968525 0.875 0.5590699985
 O5 O 0.1531475 0.875 0.6909300015
 O6 O 0.0241599995 0.7736249995 0.625
 O6 O 0.2258400005 0.9763750005 0.625
 O6 O 0.2258400005 0.7736249995 0.625
 O6 O 0.0241599995 0.9763750005 0.625
 O6 O 0.1491599995 0.8986249995 0.625
 O6 O 0.1008400005 0.8513750005 0.625
 O6 O 0.1008400005 0.8986249995 0.625
 O6 O 0.1491599995 0.8513750005 0.625
 O7 O 0.0198449995 0.78517999875 0.54336500175
 O7 O 0.2301550005 0.96482000125 0.70663499825
 O7 O 0.2301550005 0.96482000125 0.54336500175
 O7 O 0.0198449995 0.78517999875 0.70663499825
 O7 O 0.2301550005 0.78517999875 0.70663499825
 O7 O 0.0198449995 0.96482000125 0.54336500175
 O7 O 0.0198449995 0.96482000125 0.70663499825
 O7 O 0.2301550005 0.78517999875 0.54336500175
 O7 O 0.1448449995 0.91017999875 0.54336500175
 O7 O 0.1051550005 0.83982000125 0.70663499825
 O7 O 0.1051550005 0.83982000125 0.54336500175
 O7 O 0.1448449995 0.91017999875 0.70663499825
 O7 O 0.1051550005 0.91017999875 0.70663499825
 O7 O 0.1448449995 0.83982000125 0.54336500175
 O7 O 0.1448449995 0.83982000125 0.70663499825
 O7 O 0.1051550005 0.91017999875 0.54336500175
 O8 O 0.0625 0.8125 0.5
 O8 O 0.0625 0.8125 0.75
 O8 O 0.1875 0.9375 0.5
 O8 O 0.1875 0.9375 0.75
 O8 O 0.1875 0.8125 0.5
 O8 O 0.1875 0.8125 0.75
 O8 O 0.0625 0.9375 0.5
 O8 O 0.0625 0.9375 0.75
 O9 O 0.03091249975 0.81469249725 0.5
 O9 O 0.03091249975 0.81469249725 0.75
 O9 O 0.21908750025 0.93530750275 0.5
 O9 O 0.21908750025 0.93530750275 0.75
 O9 O 0.21908750025 0.81469249725 0.5
 O9 O 0.21908750025 0.81469249725 0.75
 O9 O 0.03091249975 0.93530750275 0.5
 O9 O 0.03091249975 0.93530750275 0.75
 O9 O 0.15591249975 0.93969249725 0.5
 O9 O 0.15591249975 0.93969249725 0.75
 O9 O 0.09408750025 0.81030750275 0.5
 O9 O 0.09408750025 0.81030750275 0.75
 O9 O 0.09408750025 0.93969249725 0.5
 O9 O 0.09408750025 0.93969249725 0.75
 O9 O 0.15591249975 0.81030750275 0.5
 O9 O 0.15591249975 0.81030750275 0.75
 O10 O 0.0 0.8065750002500001 0.5
 O10 O 0.0 0.8065750002500001 0.75
 O10 O 0.25 0.8065750002500001 0.5
 O10 O 0.25 0.8065750002500001 0.75
 O10 O 0.0 0.9434249997499999 0.5
 O10 O 0.0 0.9434249997499999 0.75
 O10 O 0.25 0.9434249997499999 0.5
 O10 O 0.25 0.9434249997499999 0.75
 O10 O 0.125 0.9315750002500001 0.5
 O10 O 0.125 0.9315750002500001 0.75
 O10 O 0.125 0.8184249997499999 0.5
 O10 O 0.125 0.8184249997499999 0.75
 O2 O 0.0476175025 0.83963499975 0.45677249875000003
 O2 O 0.0476175025 0.83963499975 0.7932275012500001
 O2 O 0.2023824975 0.91036500025 0.45677249875000003
 O2 O 0.2023824975 0.91036500025 0.7932275012500001
 O2 O 0.2023824975 0.83963499975 0.45677249875000003
 O2 O 0.2023824975 0.83963499975 0.7932275012500001
 O2 O 0.0476175025 0.91036500025 0.45677249875000003
 O2 O 0.0476175025 0.91036500025 0.7932275012500001
 O2 O 0.1726175025 0.96463499975 0.45677249875000003
 O2 O 0.1726175025 0.96463499975 0.7932275012500001
 O2 O 0.0773824975 0.78536500025 0.45677249875000003
 O2 O 0.0773824975 0.78536500025 0.7932275012500001
 O2 O 0.0773824975 0.96463499975 0.45677249875000003
 O2 O 0.0773824975 0.96463499975 0.7932275012500001
 O2 O 0.1726175025 0.78536500025 0.45677249875000003
 O2 O 0.1726175025 0.78536500025 0.7932275012500001
 O7 O 0.0198449995 0.78517999875 0.45663499825
 O7 O 0.0198449995 0.78517999875 0.79336500175
 O7 O 0.2301550005 0.96482000125 0.45663499825
 O7 O 0.2301550005 0.96482000125 0.79336500175
 O7 O 0.2301550005 0.78517999875 0.45663499825
 O7 O 0.2301550005 0.78517999875 0.79336500175
 O7 O 0.0198449995 0.96482000125 0.45663499825
 O7 O 0.0198449995 0.96482000125 0.79336500175
 O7 O 0.1448449995 0.91017999875 0.45663499825
 O7 O 0.1448449995 0.91017999875 0.79336500175
 O7 O 0.1051550005 0.83982000125 0.45663499825
 O7 O 0.1051550005 0.83982000125 0.79336500175
 O7 O 0.1051550005 0.91017999875 0.45663499825
 O7 O 0.1051550005 0.91017999875 0.79336500175
 O7 O 0.1448449995 0.83982000125 0.45663499825
 O7 O 0.1448449995 0.83982000125 0.79336500175
 Si1 Si 0.3172350005 0.7716099992500001 0.5748350025
 Si1 Si 0.4327649995 0.9783900007499999 0.6751649975
 Si1 Si 0.4327649995 0.9783900007499999 0.5748350025
 Si1 Si 0.3172350005 0.7716099992500001 0.6751649975
 Si1 Si 0.4327649995 0.7716099992500001 0.6751649975
 Si1 Si 0.3172350005 0.9783900007499999 0.5748350025
 Si1 Si 0.3172350005 0.9783900007499999 0.6751649975
 Si1 Si 0.4327649995 0.7716099992500001 0.5748350025
 Si1 Si 0.4422350005 0.8966099992500001 0.5748350025
 Si1 Si 0.3077649995 0.8533900007499999 0.6751649975
 Si1 Si 0.3077649995 0.8533900007499999 0.5748350025
 Si1 Si 0.4422350005 0.8966099992500001 0.6751649975
 Si1 Si 0.3077649995 0.8966099992500001 0.6751649975
 Si1 Si 0.4422350005 0.8533900007499999 0.5748350025
 Si1 Si 0.4422350005 0.8533900007499999 0.6751649975
 Si1 Si 0.3077649995 0.8966099992500001 0.5748350025
 Si2 Si 0.28017999975 0.7715750002499999 0.574832499
 Si2 Si 0.46982000025000004 0.97842499975 0.675167501
 Si2 Si 0.46982000025000004 0.97842499975 0.574832499
 Si2 Si 0.28017999975 0.7715750002499999 0.675167501
 Si2 Si 0.46982000025000004 0.7715750002499999 0.675167501
 Si2 Si 0.28017999975 0.97842499975 0.574832499
 Si2 Si 0.28017999975 0.97842499975 0.675167501
 Si2 Si 0.46982000025000004 0.7715750002499999 0.574832499
 Si2 Si 0.40517999974999996 0.89657500025 0.574832499
 Si2 Si 0.34482000025 0.85342499975 0.675167501
 Si2 Si 0.34482000025 0.85342499975 0.574832499
 Si2 Si 0.40517999974999996 0.89657500025 0.675167501
 Si2 Si 0.34482000025 0.89657500025 0.675167501
 Si2 Si 0.40517999974999996 0.85342499975 0.574832499
 Si2 Si 0.40517999974999996 0.85342499975 0.675167501
 Si2 Si 0.34482000025 0.89657500025 0.574832499
 Si3 Si 0.297362499 0.8264449985 0.5
 Si3 Si 0.297362499 0.8264449985 0.75
 Si3 Si 0.452637501 0.9235550015 0.5
 Si3 Si 0.452637501 0.9235550015 0.75
 Si3 Si 0.452637501 0.8264449985 0.5
 Si3 Si 0.452637501 0.8264449985 0.75
 Si3 Si 0.297362499 0.9235550015 0.5
 Si3 Si 0.297362499 0.9235550015 0.75
 Si3 Si 0.422362499 0.9514449985 0.5
 Si3 Si 0.422362499 0.9514449985 0.75
 Si3 Si 0.327637501 0.7985550015 0.5
 Si3 Si 0.327637501 0.7985550015 0.75
 Si3 Si 0.327637501 0.9514449985 0.5
 Si3 Si 0.327637501 0.9514449985 0.75
 Si3 Si 0.422362499 0.7985550015 0.5
 Si3 Si 0.422362499 0.7985550015 0.75
 Si4 Si 0.26785499975 0.79804499825 0.5
 Si4 Si 0.26785499975 0.79804499825 0.75
 Si4 Si 0.48214500025 0.95195500175 0.5
 Si4 Si 0.48214500025 0.95195500175 0.75
 Si4 Si 0.48214500025 0.79804499825 0.5
 Si4 Si 0.48214500025 0.79804499825 0.75
 Si4 Si 0.26785499975 0.95195500175 0.5
 Si4 Si 0.26785499975 0.95195500175 0.75
 Si4 Si 0.39285499975 0.92304499825 0.5
 Si4 Si 0.39285499975 0.92304499825 0.75
 Si4 Si 0.35714500025 0.82695500175 0.5
 Si4 Si 0.35714500025 0.82695500175 0.75
 Si4 Si 0.35714500025 0.92304499825 0.5
 Si4 Si 0.35714500025 0.92304499825 0.75
 Si4 Si 0.39285499975 0.82695500175 0.5
 Si4 Si 0.39285499975 0.82695500175 0.75
 O1 O 0.29870250075 0.7775350007499999 0.57191000125
 O1 O 0.45129749925 0.97246499925 0.67808999875
 O1 O 0.45129749925 0.97246499925 0.57191000125
 O1 O 0.29870250075 0.7775350007499999 0.67808999875
 O1 O 0.45129749925 0.7775350007499999 0.67808999875
 O1 O 0.29870250075 0.97246499925 0.57191000125
 O1 O 0.29870250075 0.97246499925 0.67808999875
 O1 O 0.45129749925 0.7775350007499999 0.57191000125
 O1 O 0.42370250075 0.90253500075 0.57191000125
 O1 O 0.32629749925 0.8474649992500001 0.67808999875
 O1 O 0.32629749925 0.8474649992500001 0.57191000125
 O1 O 0.42370250075 0.90253500075 0.67808999875
 O1 O 0.32629749925 0.90253500075 0.67808999875
 O1 O 0.42370250075 0.8474649992500001 0.57191000125
 O1 O 0.42370250075 0.8474649992500001 0.67808999875
 O1 O 0.32629749925 0.90253500075 0.57191000125
 O2 O 0.3273824975 0.78536500025 0.5432275012500001
 O2 O 0.42261750249999996 0.96463499975 0.70677249875
 O2 O 0.42261750249999996 0.96463499975 0.5432275012500001
 O2 O 0.3273824975 0.78536500025 0.70677249875
 O2 O 0.42261750249999996 0.78536500025 0.70677249875
 O2 O 0.3273824975 0.96463499975 0.5432275012500001
 O2 O 0.3273824975 0.96463499975 0.70677249875
 O2 O 0.42261750249999996 0.78536500025 0.5432275012500001
 O2 O 0.45238249750000004 0.91036500025 0.5432275012500001
 O2 O 0.2976175025 0.83963499975 0.70677249875
 O2 O 0.2976175025 0.83963499975 0.5432275012500001
 O2 O 0.45238249750000004 0.91036500025 0.70677249875
 O2 O 0.2976175025 0.91036500025 0.70677249875
 O2 O 0.45238249750000004 0.83963499975 0.5432275012500001
 O2 O 0.45238249750000004 0.83963499975 0.70677249875
 O2 O 0.2976175025 0.91036500025 0.5432275012500001
 O3 O 0.31933250275 0.75 0.55936750025
 O3 O 0.31933250275 1.0 0.55936750025
 O3 O 0.43066749725 0.75 0.69063249975
 O3 O 0.43066749725 1.0 0.69063249975
 O3 O 0.43066749725 0.75 0.55936750025
 O3 O 0.43066749725 1.0 0.55936750025
 O3 O 0.31933250275 0.75 0.69063249975
 O3 O 0.31933250275 1.0 0.69063249975
 O3 O 0.44433250275 0.875 0.55936750025
 O3 O 0.30566749725 0.875 0.69063249975
 O3 O 0.30566749725 0.875 0.55936750025
 O3 O 0.44433250275 0.875 0.69063249975
 O4 O 0.32323499775 0.77379499925 0.625
 O4 O 0.42676500225 0.97620500075 0.625
 O4 O 0.42676500225 0.77379499925 0.625
 O4 O 0.32323499775 0.97620500075 0.625
 O4 O 0.44823499775 0.89879499925 0.625
 O4 O 0.30176500225 0.85120500075 0.625
 O4 O 0.30176500225 0.89879499925 0.625
 O4 O 0.44823499775 0.85120500075 0.625
 O5 O 0.2781475 0.75 0.5590699985
 O5 O 0.2781475 1.0 0.5590699985
 O5 O 0.4718525 0.75 0.6909300015
 O5 O 0.4718525 1.0 0.6909300015
 O5 O 0.4718525 0.75 0.5590699985
 O5 O 0.4718525 1.0 0.5590699985
 O5 O 0.2781475 0.75 0.6909300015
 O5 O 0.2781475 1.0 0.6909300015
 O5 O 0.4031475 0.875 0.5590699985
 O5 O 0.3468525 0.875 0.6909300015
 O5 O 0.3468525 0.875 0.5590699985
 O5 O 0.4031475 0.875 0.6909300015
 O6 O 0.27415999950000003 0.7736249995 0.625
 O6 O 0.47584000049999997 0.9763750005 0.625
 O6 O 0.47584000049999997 0.7736249995 0.625
 O6 O 0.27415999950000003 0.9763750005 0.625
 O6 O 0.39915999950000003 0.8986249995 0.625
 O6 O 0.35084000049999997 0.8513750005 0.625
 O6 O 0.35084000049999997 0.8986249995 0.625
 O6 O 0.39915999950000003 0.8513750005 0.625
 O7 O 0.2698449995 0.78517999875 0.54336500175
 O7 O 0.48015500050000004 0.96482000125 0.70663499825
 O7 O 0.48015500050000004 0.96482000125 0.54336500175
 O7 O 0.2698449995 0.78517999875 0.70663499825
 O7 O 0.48015500050000004 0.78517999875 0.70663499825
 O7 O 0.2698449995 0.96482000125 0.54336500175
 O7 O 0.2698449995 0.96482000125 0.70663499825
 O7 O 0.48015500050000004 0.78517999875 0.54336500175
 O7 O 0.39484499949999996 0.91017999875 0.54336500175
 O7 O 0.3551550005 0.83982000125 0.70663499825
 O7 O 0.3551550005 0.83982000125 0.54336500175
 O7 O 0.39484499949999996 0.91017999875 0.70663499825
 O7 O 0.3551550005 0.91017999875 0.70663499825
 O7 O 0.39484499949999996 0.83982000125 0.54336500175
 O7 O 0.39484499949999996 0.83982000125 0.70663499825
 O7 O 0.3551550005 0.91017999875 0.54336500175
 O8 O 0.3125 0.8125 0.5
 O8 O 0.3125 0.8125 0.75
 O8 O 0.4375 0.9375 0.5
 O8 O 0.4375 0.9375 0.75
 O8 O 0.4375 0.8125 0.5
 O8 O 0.4375 0.8125 0.75
 O8 O 0.3125 0.9375 0.5
 O8 O 0.3125 0.9375 0.75
 O9 O 0.28091249975 0.81469249725 0.5
 O9 O 0.28091249975 0.81469249725 0.75
 O9 O 0.46908750025 0.93530750275 0.5
 O9 O 0.46908750025 0.93530750275 0.75
 O9 O 0.46908750025 0.81469249725 0.5
 O9 O 0.46908750025 0.81469249725 0.75
 O9 O 0.28091249975 0.93530750275 0.5
 O9 O 0.28091249975 0.93530750275 0.75
 O9 O 0.40591249975 0.93969249725 0.5
 O9 O 0.40591249975 0.93969249725 0.75
 O9 O 0.34408750025 0.81030750275 0.5
 O9 O 0.34408750025 0.81030750275 0.75
 O9 O 0.34408750025 0.93969249725 0.5
 O9 O 0.34408750025 0.93969249725 0.75
 O9 O 0.40591249975 0.81030750275 0.5
 O9 O 0.40591249975 0.81030750275 0.75
 O10 O 0.25 0.8065750002500001 0.5
 O10 O 0.25 0.8065750002500001 0.75
 O10 O 0.5 0.8065750002500001 0.5
 O10 O 0.5 0.8065750002500001 0.75
 O10 O 0.25 0.9434249997499999 0.5
 O10 O 0.25 0.9434249997499999 0.75
 O10 O 0.5 0.9434249997499999 0.5
 O10 O 0.5 0.9434249997499999 0.75
 O10 O 0.375 0.9315750002500001 0.5
 O10 O 0.375 0.9315750002500001 0.75
 O10 O 0.375 0.8184249997499999 0.5
 O10 O 0.375 0.8184249997499999 0.75
 O2 O 0.2976175025 0.83963499975 0.45677249875000003
 O2 O 0.2976175025 0.83963499975 0.7932275012500001
 O2 O 0.45238249750000004 0.91036500025 0.45677249875000003
 O2 O 0.45238249750000004 0.91036500025 0.7932275012500001
 O2 O 0.45238249750000004 0.83963499975 0.45677249875000003
 O2 O 0.45238249750000004 0.83963499975 0.7932275012500001
 O2 O 0.2976175025 0.91036500025 0.45677249875000003
 O2 O 0.2976175025 0.91036500025 0.7932275012500001
 O2 O 0.42261750249999996 0.96463499975 0.45677249875000003
 O2 O 0.42261750249999996 0.96463499975 0.7932275012500001
 O2 O 0.3273824975 0.78536500025 0.45677249875000003
 O2 O 0.3273824975 0.78536500025 0.7932275012500001
 O2 O 0.3273824975 0.96463499975 0.45677249875000003
 O2 O 0.3273824975 0.96463499975 0.7932275012500001
 O2 O 0.42261750249999996 0.78536500025 0.45677249875000003
 O2 O 0.42261750249999996 0.78536500025 0.7932275012500001
 O7 O 0.2698449995 0.78517999875 0.45663499825
 O7 O 0.2698449995 0.78517999875 0.79336500175
 O7 O 0.48015500050000004 0.96482000125 0.45663499825
 O7 O 0.48015500050000004 0.96482000125 0.79336500175
 O7 O 0.48015500050000004 0.78517999875 0.45663499825
 O7 O 0.48015500050000004 0.78517999875 0.79336500175
 O7 O 0.2698449995 0.96482000125 0.45663499825
 O7 O 0.2698449995 0.96482000125 0.79336500175
 O7 O 0.39484499949999996 0.91017999875 0.45663499825
 O7 O 0.39484499949999996 0.91017999875 0.79336500175
 O7 O 0.3551550005 0.83982000125 0.45663499825
 O7 O 0.3551550005 0.83982000125 0.79336500175
 O7 O 0.3551550005 0.91017999875 0.45663499825
 O7 O 0.3551550005 0.91017999875 0.79336500175
 O7 O 0.39484499949999996 0.83982000125 0.45663499825
 O7 O 0.39484499949999996 0.83982000125 0.79336500175
 Si1 Si 0.5672350005 0.7716099992500001 0.5748350025
 Si1 Si 0.6827649995 0.9783900007499999 0.6751649975
 Si1 Si 0.6827649995 0.9783900007499999 0.5748350025
 Si1 Si 0.5672350005 0.7716099992500001 0.6751649975
 Si1 Si 0.6827649995 0.7716099992500001 0.6751649975
 Si1 Si 0.5672350005 0.9783900007499999 0.5748350025
 Si1 Si 0.5672350005 0.9783900007499999 0.6751649975
 Si1 Si 0.6827649995 0.7716099992500001 0.5748350025
 Si1 Si 0.6922350005 0.8966099992500001 0.5748350025
 Si1 Si 0.5577649995 0.8533900007499999 0.6751649975
 Si1 Si 0.5577649995 0.8533900007499999 0.5748350025
 Si1 Si 0.6922350005 0.8966099992500001 0.6751649975
 Si1 Si 0.5577649995 0.8966099992500001 0.6751649975
 Si1 Si 0.6922350005 0.8533900007499999 0.5748350025
 Si1 Si 0.6922350005 0.8533900007499999 0.6751649975
 Si1 Si 0.5577649995 0.8966099992500001 0.5748350025
 Si2 Si 0.5301799997500001 0.7715750002499999 0.574832499
 Si2 Si 0.71982000025 0.97842499975 0.675167501
 Si2 Si 0.71982000025 0.97842499975 0.574832499
 Si2 Si 0.5301799997500001 0.7715750002499999 0.675167501
 Si2 Si 0.71982000025 0.7715750002499999 0.675167501
 Si2 Si 0.5301799997500001 0.97842499975 0.574832499
 Si2 Si 0.5301799997500001 0.97842499975 0.675167501
 Si2 Si 0.71982000025 0.7715750002499999 0.574832499
 Si2 Si 0.65517999975 0.89657500025 0.574832499
 Si2 Si 0.5948200002499999 0.85342499975 0.675167501
 Si2 Si 0.5948200002499999 0.85342499975 0.574832499
 Si2 Si 0.65517999975 0.89657500025 0.675167501
 Si2 Si 0.5948200002499999 0.89657500025 0.675167501
 Si2 Si 0.65517999975 0.85342499975 0.574832499
 Si2 Si 0.65517999975 0.85342499975 0.675167501
 Si2 Si 0.5948200002499999 0.89657500025 0.574832499
 Si3 Si 0.547362499 0.8264449985 0.5
 Si3 Si 0.547362499 0.8264449985 0.75
 Si3 Si 0.702637501 0.9235550015 0.5
 Si3 Si 0.702637501 0.9235550015 0.75
 Si3 Si 0.702637501 0.8264449985 0.5
 Si3 Si 0.702637501 0.8264449985 0.75
 Si3 Si 0.547362499 0.9235550015 0.5
 Si3 Si 0.547362499 0.9235550015 0.75
 Si3 Si 0.672362499 0.9514449985 0.5
 Si3 Si 0.672362499 0.9514449985 0.75
 Si3 Si 0.577637501 0.7985550015 0.5
 Si3 Si 0.577637501 0.7985550015 0.75
 Si3 Si 0.577637501 0.9514449985 0.5
 Si3 Si 0.577637501 0.9514449985 0.75
 Si3 Si 0.672362499 0.7985550015 0.5
 Si3 Si 0.672362499 0.7985550015 0.75
 Si4 Si 0.5178549997499999 0.79804499825 0.5
 Si4 Si 0.5178549997499999 0.79804499825 0.75
 Si4 Si 0.7321450002500001 0.95195500175 0.5
 Si4 Si 0.7321450002500001 0.95195500175 0.75
 Si4 Si 0.7321450002500001 0.79804499825 0.5
 Si4 Si 0.7321450002500001 0.79804499825 0.75
 Si4 Si 0.5178549997499999 0.95195500175 0.5
 Si4 Si 0.5178549997499999 0.95195500175 0.75
 Si4 Si 0.6428549997499999 0.92304499825 0.5
 Si4 Si 0.6428549997499999 0.92304499825 0.75
 Si4 Si 0.6071450002500001 0.82695500175 0.5
 Si4 Si 0.6071450002500001 0.82695500175 0.75
 Si4 Si 0.6071450002500001 0.92304499825 0.5
 Si4 Si 0.6071450002500001 0.92304499825 0.75
 Si4 Si 0.6428549997499999 0.82695500175 0.5
 Si4 Si 0.6428549997499999 0.82695500175 0.75
 O1 O 0.5487025007499999 0.7775350007499999 0.57191000125
 O1 O 0.7012974992500001 0.97246499925 0.67808999875
 O1 O 0.7012974992500001 0.97246499925 0.57191000125
 O1 O 0.5487025007499999 0.7775350007499999 0.67808999875
 O1 O 0.7012974992500001 0.7775350007499999 0.67808999875
 O1 O 0.5487025007499999 0.97246499925 0.57191000125
 O1 O 0.5487025007499999 0.97246499925 0.67808999875
 O1 O 0.7012974992500001 0.7775350007499999 0.57191000125
 O1 O 0.6737025007499999 0.90253500075 0.57191000125
 O1 O 0.5762974992500001 0.8474649992500001 0.67808999875
 O1 O 0.5762974992500001 0.8474649992500001 0.57191000125
 O1 O 0.6737025007499999 0.90253500075 0.67808999875
 O1 O 0.5762974992500001 0.90253500075 0.67808999875
 O1 O 0.6737025007499999 0.8474649992500001 0.57191000125
 O1 O 0.6737025007499999 0.8474649992500001 0.67808999875
 O1 O 0.5762974992500001 0.90253500075 0.57191000125
 O2 O 0.5773824974999999 0.78536500025 0.5432275012500001
 O2 O 0.6726175025 0.96463499975 0.70677249875
 O2 O 0.6726175025 0.96463499975 0.5432275012500001
 O2 O 0.5773824974999999 0.78536500025 0.70677249875
 O2 O 0.6726175025 0.78536500025 0.70677249875
 O2 O 0.5773824974999999 0.96463499975 0.5432275012500001
 O2 O 0.5773824974999999 0.96463499975 0.70677249875
 O2 O 0.6726175025 0.78536500025 0.5432275012500001
 O2 O 0.7023824975 0.91036500025 0.5432275012500001
 O2 O 0.5476175025000001 0.83963499975 0.70677249875
 O2 O 0.5476175025000001 0.83963499975 0.5432275012500001
 O2 O 0.7023824975 0.91036500025 0.70677249875
 O2 O 0.5476175025000001 0.91036500025 0.70677249875
 O2 O 0.7023824975 0.83963499975 0.5432275012500001
 O2 O 0.7023824975 0.83963499975 0.70677249875
 O2 O 0.5476175025000001 0.91036500025 0.5432275012500001
 O3 O 0.56933250275 0.75 0.55936750025
 O3 O 0.56933250275 1.0 0.55936750025
 O3 O 0.68066749725 0.75 0.69063249975
 O3 O 0.68066749725 1.0 0.69063249975
 O3 O 0.68066749725 0.75 0.55936750025
 O3 O 0.68066749725 1.0 0.55936750025
 O3 O 0.56933250275 0.75 0.69063249975
 O3 O 0.56933250275 1.0 0.69063249975
 O3 O 0.69433250275 0.875 0.55936750025
 O3 O 0.55566749725 0.875 0.69063249975
 O3 O 0.55566749725 0.875 0.55936750025
 O3 O 0.69433250275 0.875 0.69063249975
 O4 O 0.57323499775 0.77379499925 0.625
 O4 O 0.67676500225 0.97620500075 0.625
 O4 O 0.67676500225 0.77379499925 0.625
 O4 O 0.57323499775 0.97620500075 0.625
 O4 O 0.69823499775 0.89879499925 0.625
 O4 O 0.55176500225 0.85120500075 0.625
 O4 O 0.55176500225 0.89879499925 0.625
 O4 O 0.69823499775 0.85120500075 0.625
 O5 O 0.5281475 0.75 0.5590699985
 O5 O 0.5281475 1.0 0.5590699985
 O5 O 0.7218525 0.75 0.6909300015
 O5 O 0.7218525 1.0 0.6909300015
 O5 O 0.7218525 0.75 0.5590699985
 O5 O 0.7218525 1.0 0.5590699985
 O5 O 0.5281475 0.75 0.6909300015
 O5 O 0.5281475 1.0 0.6909300015
 O5 O 0.6531475 0.875 0.5590699985
 O5 O 0.5968525 0.875 0.6909300015
 O5 O 0.5968525 0.875 0.5590699985
 O5 O 0.6531475 0.875 0.6909300015
 O6 O 0.5241599995 0.7736249995 0.625
 O6 O 0.7258400005 0.9763750005 0.625
 O6 O 0.7258400005 0.7736249995 0.625
 O6 O 0.5241599995 0.9763750005 0.625
 O6 O 0.6491599995 0.8986249995 0.625
 O6 O 0.6008400005 0.8513750005 0.625
 O6 O 0.6008400005 0.8986249995 0.625
 O6 O 0.6491599995 0.8513750005 0.625
 O7 O 0.5198449995000001 0.78517999875 0.54336500175
 O7 O 0.7301550005 0.96482000125 0.70663499825
 O7 O 0.7301550005 0.96482000125 0.54336500175
 O7 O 0.5198449995000001 0.78517999875 0.70663499825
 O7 O 0.7301550005 0.78517999875 0.70663499825
 O7 O 0.5198449995000001 0.96482000125 0.54336500175
 O7 O 0.5198449995000001 0.96482000125 0.70663499825
 O7 O 0.7301550005 0.78517999875 0.54336500175
 O7 O 0.6448449995 0.91017999875 0.54336500175
 O7 O 0.6051550004999999 0.83982000125 0.70663499825
 O7 O 0.6051550004999999 0.83982000125 0.54336500175
 O7 O 0.6448449995 0.91017999875 0.70663499825
 O7 O 0.6051550004999999 0.91017999875 0.70663499825
 O7 O 0.6448449995 0.83982000125 0.54336500175
 O7 O 0.6448449995 0.83982000125 0.70663499825
 O7 O 0.6051550004999999 0.91017999875 0.54336500175
 O8 O 0.5625 0.8125 0.5
 O8 O 0.5625 0.8125 0.75
 O8 O 0.6875 0.9375 0.5
 O8 O 0.6875 0.9375 0.75
 O8 O 0.6875 0.8125 0.5
 O8 O 0.6875 0.8125 0.75
 O8 O 0.5625 0.9375 0.5
 O8 O 0.5625 0.9375 0.75
 O9 O 0.53091249975 0.81469249725 0.5
 O9 O 0.53091249975 0.81469249725 0.75
 O9 O 0.71908750025 0.93530750275 0.5
 O9 O 0.71908750025 0.93530750275 0.75
 O9 O 0.71908750025 0.81469249725 0.5
 O9 O 0.71908750025 0.81469249725 0.75
 O9 O 0.53091249975 0.93530750275 0.5
 O9 O 0.53091249975 0.93530750275 0.75
 O9 O 0.65591249975 0.93969249725 0.5
 O9 O 0.65591249975 0.93969249725 0.75
 O9 O 0.59408750025 0.81030750275 0.5
 O9 O 0.59408750025 0.81030750275 0.75
 O9 O 0.59408750025 0.93969249725 0.5
 O9 O 0.59408750025 0.93969249725 0.75
 O9 O 0.65591249975 0.81030750275 0.5
 O9 O 0.65591249975 0.81030750275 0.75
 O10 O 0.5 0.8065750002500001 0.5
 O10 O 0.5 0.8065750002500001 0.75
 O10 O 0.75 0.8065750002500001 0.5
 O10 O 0.75 0.8065750002500001 0.75
 O10 O 0.5 0.9434249997499999 0.5
 O10 O 0.5 0.9434249997499999 0.75
 O10 O 0.75 0.9434249997499999 0.5
 O10 O 0.75 0.9434249997499999 0.75
 O10 O 0.625 0.9315750002500001 0.5
 O10 O 0.625 0.9315750002500001 0.75
 O10 O 0.625 0.8184249997499999 0.5
 O10 O 0.625 0.8184249997499999 0.75
 O2 O 0.5476175025000001 0.83963499975 0.45677249875000003
 O2 O 0.5476175025000001 0.83963499975 0.7932275012500001
 O2 O 0.7023824975 0.91036500025 0.45677249875000003
 O2 O 0.7023824975 0.91036500025 0.7932275012500001
 O2 O 0.7023824975 0.83963499975 0.45677249875000003
 O2 O 0.7023824975 0.83963499975 0.7932275012500001
 O2 O 0.5476175025000001 0.91036500025 0.45677249875000003
 O2 O 0.5476175025000001 0.91036500025 0.7932275012500001
 O2 O 0.6726175025 0.96463499975 0.45677249875000003
 O2 O 0.6726175025 0.96463499975 0.7932275012500001
 O2 O 0.5773824974999999 0.78536500025 0.45677249875000003
 O2 O 0.5773824974999999 0.78536500025 0.7932275012500001
 O2 O 0.5773824974999999 0.96463499975 0.45677249875000003
 O2 O 0.5773824974999999 0.96463499975 0.7932275012500001
 O2 O 0.6726175025 0.78536500025 0.45677249875000003
 O2 O 0.6726175025 0.78536500025 0.7932275012500001
 O7 O 0.5198449995000001 0.78517999875 0.45663499825
 O7 O 0.5198449995000001 0.78517999875 0.79336500175
 O7 O 0.7301550005 0.96482000125 0.45663499825
 O7 O 0.7301550005 0.96482000125 0.79336500175
 O7 O 0.7301550005 0.78517999875 0.45663499825
 O7 O 0.7301550005 0.78517999875 0.79336500175
 O7 O 0.5198449995000001 0.96482000125 0.45663499825
 O7 O 0.5198449995000001 0.96482000125 0.79336500175
 O7 O 0.6448449995 0.91017999875 0.45663499825
 O7 O 0.6448449995 0.91017999875 0.79336500175
 O7 O 0.6051550004999999 0.83982000125 0.45663499825
 O7 O 0.6051550004999999 0.83982000125 0.79336500175
 O7 O 0.6051550004999999 0.91017999875 0.45663499825
 O7 O 0.6051550004999999 0.91017999875 0.79336500175
 O7 O 0.6448449995 0.83982000125 0.45663499825
 O7 O 0.6448449995 0.83982000125 0.79336500175
 Si1 Si 0.8172350005 0.7716099992500001 0.5748350025
 Si1 Si 0.9327649995 0.9783900007499999 0.6751649975
 Si1 Si 0.9327649995 0.9783900007499999 0.5748350025
 Si1 Si 0.8172350005 0.7716099992500001 0.6751649975
 Si1 Si 0.9327649995 0.7716099992500001 0.6751649975
 Si1 Si 0.8172350005 0.9783900007499999 0.5748350025
 Si1 Si 0.8172350005 0.9783900007499999 0.6751649975
 Si1 Si 0.9327649995 0.7716099992500001 0.5748350025
 Si1 Si 0.9422350005 0.8966099992500001 0.5748350025
 Si1 Si 0.8077649995 0.8533900007499999 0.6751649975
 Si1 Si 0.8077649995 0.8533900007499999 0.5748350025
 Si1 Si 0.9422350005 0.8966099992500001 0.6751649975
 Si1 Si 0.8077649995 0.8966099992500001 0.6751649975
 Si1 Si 0.9422350005 0.8533900007499999 0.5748350025
 Si1 Si 0.9422350005 0.8533900007499999 0.6751649975
 Si1 Si 0.8077649995 0.8966099992500001 0.5748350025
 Si2 Si 0.7801799997500001 0.7715750002499999 0.574832499
 Si2 Si 0.96982000025 0.97842499975 0.675167501
 Si2 Si 0.96982000025 0.97842499975 0.574832499
 Si2 Si 0.7801799997500001 0.7715750002499999 0.675167501
 Si2 Si 0.96982000025 0.7715750002499999 0.675167501
 Si2 Si 0.7801799997500001 0.97842499975 0.574832499
 Si2 Si 0.7801799997500001 0.97842499975 0.675167501
 Si2 Si 0.96982000025 0.7715750002499999 0.574832499
 Si2 Si 0.90517999975 0.89657500025 0.574832499
 Si2 Si 0.8448200002499999 0.85342499975 0.675167501
 Si2 Si 0.8448200002499999 0.85342499975 0.574832499
 Si2 Si 0.90517999975 0.89657500025 0.675167501
 Si2 Si 0.8448200002499999 0.89657500025 0.675167501
 Si2 Si 0.90517999975 0.85342499975 0.574832499
 Si2 Si 0.90517999975 0.85342499975 0.675167501
 Si2 Si 0.8448200002499999 0.89657500025 0.574832499
 Si3 Si 0.797362499 0.8264449985 0.5
 Si3 Si 0.797362499 0.8264449985 0.75
 Si3 Si 0.952637501 0.9235550015 0.5
 Si3 Si 0.952637501 0.9235550015 0.75
 Si3 Si 0.952637501 0.8264449985 0.5
 Si3 Si 0.952637501 0.8264449985 0.75
 Si3 Si 0.797362499 0.9235550015 0.5
 Si3 Si 0.797362499 0.9235550015 0.75
 Si3 Si 0.922362499 0.9514449985 0.5
 Si3 Si 0.922362499 0.9514449985 0.75
 Si3 Si 0.827637501 0.7985550015 0.5
 Si3 Si 0.827637501 0.7985550015 0.75
 Si3 Si 0.827637501 0.9514449985 0.5
 Si3 Si 0.827637501 0.9514449985 0.75
 Si3 Si 0.922362499 0.7985550015 0.5
 Si3 Si 0.922362499 0.7985550015 0.75
 Si4 Si 0.7678549997499999 0.79804499825 0.5
 Si4 Si 0.7678549997499999 0.79804499825 0.75
 Si4 Si 0.9821450002500001 0.95195500175 0.5
 Si4 Si 0.9821450002500001 0.95195500175 0.75
 Si4 Si 0.9821450002500001 0.79804499825 0.5
 Si4 Si 0.9821450002500001 0.79804499825 0.75
 Si4 Si 0.7678549997499999 0.95195500175 0.5
 Si4 Si 0.7678549997499999 0.95195500175 0.75
 Si4 Si 0.8928549997499999 0.92304499825 0.5
 Si4 Si 0.8928549997499999 0.92304499825 0.75
 Si4 Si 0.8571450002500001 0.82695500175 0.5
 Si4 Si 0.8571450002500001 0.82695500175 0.75
 Si4 Si 0.8571450002500001 0.92304499825 0.5
 Si4 Si 0.8571450002500001 0.92304499825 0.75
 Si4 Si 0.8928549997499999 0.82695500175 0.5
 Si4 Si 0.8928549997499999 0.82695500175 0.75
 O1 O 0.7987025007499999 0.7775350007499999 0.57191000125
 O1 O 0.9512974992500001 0.97246499925 0.67808999875
 O1 O 0.9512974992500001 0.97246499925 0.57191000125
 O1 O 0.7987025007499999 0.7775350007499999 0.67808999875
 O1 O 0.9512974992500001 0.7775350007499999 0.67808999875
 O1 O 0.7987025007499999 0.97246499925 0.57191000125
 O1 O 0.7987025007499999 0.97246499925 0.67808999875
 O1 O 0.9512974992500001 0.7775350007499999 0.57191000125
 O1 O 0.9237025007499999 0.90253500075 0.57191000125
 O1 O 0.8262974992500001 0.8474649992500001 0.67808999875
 O1 O 0.8262974992500001 0.8474649992500001 0.57191000125
 O1 O 0.9237025007499999 0.90253500075 0.67808999875
 O1 O 0.8262974992500001 0.90253500075 0.67808999875
 O1 O 0.9237025007499999 0.8474649992500001 0.57191000125
 O1 O 0.9237025007499999 0.8474649992500001 0.67808999875
 O1 O 0.8262974992500001 0.90253500075 0.57191000125
 O2 O 0.8273824974999999 0.78536500025 0.5432275012500001
 O2 O 0.9226175025 0.96463499975 0.70677249875
 O2 O 0.9226175025 0.96463499975 0.5432275012500001
 O2 O 0.8273824974999999 0.78536500025 0.70677249875
 O2 O 0.9226175025 0.78536500025 0.70677249875
 O2 O 0.8273824974999999 0.96463499975 0.5432275012500001
 O2 O 0.8273824974999999 0.96463499975 0.70677249875
 O2 O 0.9226175025 0.78536500025 0.5432275012500001
 O2 O 0.9523824975 0.91036500025 0.5432275012500001
 O2 O 0.7976175025000001 0.83963499975 0.70677249875
 O2 O 0.7976175025000001 0.83963499975 0.5432275012500001
 O2 O 0.9523824975 0.91036500025 0.70677249875
 O2 O 0.7976175025000001 0.91036500025 0.70677249875
 O2 O 0.9523824975 0.83963499975 0.5432275012500001
 O2 O 0.9523824975 0.83963499975 0.70677249875
 O2 O 0.7976175025000001 0.91036500025 0.5432275012500001
 O3 O 0.81933250275 0.75 0.55936750025
 O3 O 0.81933250275 1.0 0.55936750025
 O3 O 0.93066749725 0.75 0.69063249975
 O3 O 0.93066749725 1.0 0.69063249975
 O3 O 0.93066749725 0.75 0.55936750025
 O3 O 0.93066749725 1.0 0.55936750025
 O3 O 0.81933250275 0.75 0.69063249975
 O3 O 0.81933250275 1.0 0.69063249975
 O3 O 0.94433250275 0.875 0.55936750025
 O3 O 0.80566749725 0.875 0.69063249975
 O3 O 0.80566749725 0.875 0.55936750025
 O3 O 0.94433250275 0.875 0.69063249975
 O4 O 0.82323499775 0.77379499925 0.625
 O4 O 0.92676500225 0.97620500075 0.625
 O4 O 0.92676500225 0.77379499925 0.625
 O4 O 0.82323499775 0.97620500075 0.625
 O4 O 0.94823499775 0.89879499925 0.625
 O4 O 0.80176500225 0.85120500075 0.625
 O4 O 0.80176500225 0.89879499925 0.625
 O4 O 0.94823499775 0.85120500075 0.625
 O5 O 0.7781475 0.75 0.5590699985
 O5 O 0.7781475 1.0 0.5590699985
 O5 O 0.9718525 0.75 0.6909300015
 O5 O 0.9718525 1.0 0.6909300015
 O5 O 0.9718525 0.75 0.5590699985
 O5 O 0.9718525 1.0 0.5590699985
 O5 O 0.7781475 0.75 0.6909300015
 O5 O 0.7781475 1.0 0.6909300015
 O5 O 0.9031475 0.875 0.5590699985
 O5 O 0.8468525 0.875 0.6909300015
 O5 O 0.8468525 0.875 0.5590699985
 O5 O 0.9031475 0.875 0.6909300015
 O6 O 0.7741599995 0.7736249995 0.625
 O6 O 0.9758400005 0.9763750005 0.625
 O6 O 0.9758400005 0.7736249995 0.625
 O6 O 0.7741599995 0.9763750005 0.625
 O6 O 0.8991599995 0.8986249995 0.625
 O6 O 0.8508400005 0.8513750005 0.625
 O6 O 0.8508400005 0.8986249995 0.625
 O6 O 0.8991599995 0.8513750005 0.625
 O7 O 0.7698449995000001 0.78517999875 0.54336500175
 O7 O 0.9801550005 0.96482000125 0.70663499825
 O7 O 0.9801550005 0.96482000125 0.54336500175
 O7 O 0.7698449995000001 0.78517999875 0.70663499825
 O7 O 0.9801550005 0.78517999875 0.70663499825
 O7 O 0.7698449995000001 0.96482000125 0.54336500175
 O7 O 0.7698449995000001 0.96482000125 0.70663499825
 O7 O 0.9801550005 0.78517999875 0.54336500175
 O7 O 0.8948449995 0.91017999875 0.54336500175
 O7 O 0.8551550004999999 0.83982000125 0.70663499825
 O7 O 0.8551550004999999 0.83982000125 0.54336500175
 O7 O 0.8948449995 0.91017999875 0.70663499825
 O7 O 0.8551550004999999 0.91017999875 0.70663499825
 O7 O 0.8948449995 0.83982000125 0.54336500175
 O7 O 0.8948449995 0.83982000125 0.70663499825
 O7 O 0.8551550004999999 0.91017999875 0.54336500175
 O8 O 0.8125 0.8125 0.5
 O8 O 0.8125 0.8125 0.75
 O8 O 0.9375 0.9375 0.5
 O8 O 0.9375 0.9375 0.75
 O8 O 0.9375 0.8125 0.5
 O8 O 0.9375 0.8125 0.75
 O8 O 0.8125 0.9375 0.5
 O8 O 0.8125 0.9375 0.75
 O9 O 0.78091249975 0.81469249725 0.5
 O9 O 0.78091249975 0.81469249725 0.75
 O9 O 0.96908750025 0.93530750275 0.5
 O9 O 0.96908750025 0.93530750275 0.75
 O9 O 0.96908750025 0.81469249725 0.5
 O9 O 0.96908750025 0.81469249725 0.75
 O9 O 0.78091249975 0.93530750275 0.5
 O9 O 0.78091249975 0.93530750275 0.75
 O9 O 0.90591249975 0.93969249725 0.5
 O9 O 0.90591249975 0.93969249725 0.75
 O9 O 0.84408750025 0.81030750275 0.5
 O9 O 0.84408750025 0.81030750275 0.75
 O9 O 0.84408750025 0.93969249725 0.5
 O9 O 0.84408750025 0.93969249725 0.75
 O9 O 0.90591249975 0.81030750275 0.5
 O9 O 0.90591249975 0.81030750275 0.75
 O10 O 0.75 0.8065750002500001 0.5
 O10 O 0.75 0.8065750002500001 0.75
 O10 O 1.0 0.8065750002500001 0.5
 O10 O 1.0 0.8065750002500001 0.75
 O10 O 0.75 0.9434249997499999 0.5
 O10 O 0.75 0.9434249997499999 0.75
 O10 O 1.0 0.9434249997499999 0.5
 O10 O 1.0 0.9434249997499999 0.75
 O10 O 0.875 0.9315750002500001 0.5
 O10 O 0.875 0.9315750002500001 0.75
 O10 O 0.875 0.8184249997499999 0.5
 O10 O 0.875 0.8184249997499999 0.75
 O2 O 0.7976175025000001 0.83963499975 0.45677249875000003
 O2 O 0.7976175025000001 0.83963499975 0.7932275012500001
 O2 O 0.9523824975 0.91036500025 0.45677249875000003
 O2 O 0.9523824975 0.91036500025 0.7932275012500001
 O2 O 0.9523824975 0.83963499975 0.45677249875000003
 O2 O 0.9523824975 0.83963499975 0.7932275012500001
 O2 O 0.7976175025000001 0.91036500025 0.45677249875000003
 O2 O 0.7976175025000001 0.91036500025 0.7932275012500001
 O2 O 0.9226175025 0.96463499975 0.45677249875000003
 O2 O 0.9226175025 0.96463499975 0.7932275012500001
 O2 O 0.8273824974999999 0.78536500025 0.45677249875000003
 O2 O 0.8273824974999999 0.78536500025 0.7932275012500001
 O2 O 0.8273824974999999 0.96463499975 0.45677249875000003
 O2 O 0.8273824974999999 0.96463499975 0.7932275012500001
 O2 O 0.9226175025 0.78536500025 0.45677249875000003
 O2 O 0.9226175025 0.78536500025 0.7932275012500001
 O7 O 0.7698449995000001 0.78517999875 0.45663499825
 O7 O 0.7698449995000001 0.78517999875 0.79336500175
 O7 O 0.9801550005 0.96482000125 0.45663499825
 O7 O 0.9801550005 0.96482000125 0.79336500175
 O7 O 0.9801550005 0.78517999875 0.45663499825
 O7 O 0.9801550005 0.78517999875 0.79336500175
 O7 O 0.7698449995000001 0.96482000125 0.45663499825
 O7 O 0.7698449995000001 0.96482000125 0.79336500175
 O7 O 0.8948449995 0.91017999875 0.45663499825
 O7 O 0.8948449995 0.91017999875 0.79336500175
 O7 O 0.8551550004999999 0.83982000125 0.45663499825
 O7 O 0.8551550004999999 0.83982000125 0.79336500175
 O7 O 0.8551550004999999 0.91017999875 0.45663499825
 O7 O 0.8551550004999999 0.91017999875 0.79336500175
 O7 O 0.8948449995 0.83982000125 0.45663499825
 O7 O 0.8948449995 0.83982000125 0.79336500175
 Si1 Si 0.0672350005 0.02160999925 0.8248350025
 Si1 Si 0.1827649995 0.22839000075 0.9251649975
 Si1 Si 0.1827649995 0.22839000075 0.8248350025
 Si1 Si 0.0672350005 0.02160999925 0.9251649975
 Si1 Si 0.1827649995 0.02160999925 0.9251649975
 Si1 Si 0.0672350005 0.22839000075 0.8248350025
 Si1 Si 0.0672350005 0.22839000075 0.9251649975
 Si1 Si 0.1827649995 0.02160999925 0.8248350025
 Si1 Si 0.1922350005 0.14660999925 0.8248350025
 Si1 Si 0.0577649995 0.10339000075 0.9251649975
 Si1 Si 0.0577649995 0.10339000075 0.8248350025
 Si1 Si 0.1922350005 0.14660999925 0.9251649975
 Si1 Si 0.0577649995 0.14660999925 0.9251649975
 Si1 Si 0.1922350005 0.10339000075 0.8248350025
 Si1 Si 0.1922350005 0.10339000075 0.9251649975
 Si1 Si 0.0577649995 0.14660999925 0.8248350025
 Si2 Si 0.03017999975 0.02157500025 0.824832499
 Si2 Si 0.21982000025 0.22842499975 0.925167501
 Si2 Si 0.21982000025 0.22842499975 0.824832499
 Si2 Si 0.03017999975 0.02157500025 0.925167501
 Si2 Si 0.21982000025 0.02157500025 0.925167501
 Si2 Si 0.03017999975 0.22842499975 0.824832499
 Si2 Si 0.03017999975 0.22842499975 0.925167501
 Si2 Si 0.21982000025 0.02157500025 0.824832499
 Si2 Si 0.15517999975 0.14657500025 0.824832499
 Si2 Si 0.09482000025 0.10342499975 0.925167501
 Si2 Si 0.09482000025 0.10342499975 0.824832499
 Si2 Si 0.15517999975 0.14657500025 0.925167501
 Si2 Si 0.09482000025 0.14657500025 0.925167501
 Si2 Si 0.15517999975 0.10342499975 0.824832499
 Si2 Si 0.15517999975 0.10342499975 0.925167501
 Si2 Si 0.09482000025 0.14657500025 0.824832499
 Si3 Si 0.047362499 0.0764449985 0.75
 Si3 Si 0.047362499 0.0764449985 1.0
 Si3 Si 0.202637501 0.1735550015 0.75
 Si3 Si 0.202637501 0.1735550015 1.0
 Si3 Si 0.202637501 0.0764449985 0.75
 Si3 Si 0.202637501 0.0764449985 1.0
 Si3 Si 0.047362499 0.1735550015 0.75
 Si3 Si 0.047362499 0.1735550015 1.0
 Si3 Si 0.172362499 0.2014449985 0.75
 Si3 Si 0.172362499 0.2014449985 1.0
 Si3 Si 0.077637501 0.0485550015 0.75
 Si3 Si 0.077637501 0.0485550015 1.0
 Si3 Si 0.077637501 0.2014449985 0.75
 Si3 Si 0.077637501 0.2014449985 1.0
 Si3 Si 0.172362499 0.0485550015 0.75
 Si3 Si 0.172362499 0.0485550015 1.0
 Si4 Si 0.01785499975 0.04804499825 0.75
 Si4 Si 0.01785499975 0.04804499825 1.0
 Si4 Si 0.23214500025 0.20195500175 0.75
 Si4 Si 0.23214500025 0.20195500175 1.0
 Si4 Si 0.23214500025 0.04804499825 0.75
 Si4 Si 0.23214500025 0.04804499825 1.0
 Si4 Si 0.01785499975 0.20195500175 0.75
 Si4 Si 0.01785499975 0.20195500175 1.0
 Si4 Si 0.14285499975 0.17304499825 0.75
 Si4 Si 0.14285499975 0.17304499825 1.0
 Si4 Si 0.10714500025 0.07695500175 0.75
 Si4 Si 0.10714500025 0.07695500175 1.0
 Si4 Si 0.10714500025 0.17304499825 0.75
 Si4 Si 0.10714500025 0.17304499825 1.0
 Si4 Si 0.14285499975 0.07695500175 0.75
 Si4 Si 0.14285499975 0.07695500175 1.0
 O1 O 0.04870250075 0.02753500075 0.82191000125
 O1 O 0.20129749925 0.22246499925 0.92808999875
 O1 O 0.20129749925 0.22246499925 0.82191000125
 O1 O 0.04870250075 0.02753500075 0.92808999875
 O1 O 0.20129749925 0.02753500075 0.92808999875
 O1 O 0.04870250075 0.22246499925 0.82191000125
 O1 O 0.04870250075 0.22246499925 0.92808999875
 O1 O 0.20129749925 0.02753500075 0.82191000125
 O1 O 0.17370250075 0.15253500075 0.82191000125
 O1 O 0.07629749925 0.09746499925 0.92808999875
 O1 O 0.07629749925 0.09746499925 0.82191000125
 O1 O 0.17370250075 0.15253500075 0.92808999875
 O1 O 0.07629749925 0.15253500075 0.92808999875
 O1 O 0.17370250075 0.09746499925 0.82191000125
 O1 O 0.17370250075 0.09746499925 0.92808999875
 O1 O 0.07629749925 0.15253500075 0.82191000125
 O2 O 0.0773824975 0.03536500025 0.7932275012500001
 O2 O 0.1726175025 0.21463499975 0.95677249875
 O2 O 0.1726175025 0.21463499975 0.7932275012500001
 O2 O 0.0773824975 0.03536500025 0.95677249875
 O2 O 0.1726175025 0.03536500025 0.95677249875
 O2 O 0.0773824975 0.21463499975 0.7932275012500001
 O2 O 0.0773824975 0.21463499975 0.95677249875
 O2 O 0.1726175025 0.03536500025 0.7932275012500001
 O2 O 0.2023824975 0.16036500025 0.7932275012500001
 O2 O 0.0476175025 0.08963499975 0.95677249875
 O2 O 0.0476175025 0.08963499975 0.7932275012500001
 O2 O 0.2023824975 0.16036500025 0.95677249875
 O2 O 0.0476175025 0.16036500025 0.95677249875
 O2 O 0.2023824975 0.08963499975 0.7932275012500001
 O2 O 0.2023824975 0.08963499975 0.95677249875
 O2 O 0.0476175025 0.16036500025 0.7932275012500001
 O3 O 0.06933250275 0.0 0.80936750025
 O3 O 0.06933250275 0.25 0.80936750025
 O3 O 0.18066749725 0.0 0.94063249975
 O3 O 0.18066749725 0.25 0.94063249975
 O3 O 0.18066749725 0.0 0.80936750025
 O3 O 0.18066749725 0.25 0.80936750025
 O3 O 0.06933250275 0.0 0.94063249975
 O3 O 0.06933250275 0.25 0.94063249975
 O3 O 0.19433250275 0.125 0.80936750025
 O3 O 0.05566749725 0.125 0.94063249975
 O3 O 0.05566749725 0.125 0.80936750025
 O3 O 0.19433250275 0.125 0.94063249975
 O4 O 0.07323499775 0.02379499925 0.875
 O4 O 0.17676500225 0.22620500075 0.875
 O4 O 0.17676500225 0.02379499925 0.875
 O4 O 0.07323499775 0.22620500075 0.875
 O4 O 0.19823499775 0.14879499925 0.875
 O4 O 0.05176500225 0.10120500075 0.875
 O4 O 0.05176500225 0.14879499925 0.875
 O4 O 0.19823499775 0.10120500075 0.875
 O5 O 0.0281475 0.0 0.8090699985
 O5 O 0.0281475 0.25 0.8090699985
 O5 O 0.2218525 0.0 0.9409300015
 O5 O 0.2218525 0.25 0.9409300015
 O5 O 0.2218525 0.0 0.8090699985
 O5 O 0.2218525 0.25 0.8090699985
 O5 O 0.0281475 0.0 0.9409300015
 O5 O 0.0281475 0.25 0.9409300015
 O5 O 0.1531475 0.125 0.8090699985
 O5 O 0.0968525 0.125 0.9409300015
 O5 O 0.0968525 0.125 0.8090699985
 O5 O 0.1531475 0.125 0.9409300015
 O6 O 0.0241599995 0.0236249995 0.875
 O6 O 0.2258400005 0.2263750005 0.875
 O6 O 0.2258400005 0.0236249995 0.875
 O6 O 0.0241599995 0.2263750005 0.875
 O6 O 0.1491599995 0.1486249995 0.875
 O6 O 0.1008400005 0.1013750005 0.875
 O6 O 0.1008400005 0.1486249995 0.875
 O6 O 0.1491599995 0.1013750005 0.875
 O7 O 0.0198449995 0.03517999875 0.79336500175
 O7 O 0.2301550005 0.21482000125 0.95663499825
 O7 O 0.2301550005 0.21482000125 0.79336500175
 O7 O 0.0198449995 0.03517999875 0.95663499825
 O7 O 0.2301550005 0.03517999875 0.95663499825
 O7 O 0.0198449995 0.21482000125 0.79336500175
 O7 O 0.0198449995 0.21482000125 0.95663499825
 O7 O 0.2301550005 0.03517999875 0.79336500175
 O7 O 0.1448449995 0.16017999875 0.79336500175
 O7 O 0.1051550005 0.08982000125 0.95663499825
 O7 O 0.1051550005 0.08982000125 0.79336500175
 O7 O 0.1448449995 0.16017999875 0.95663499825
 O7 O 0.1051550005 0.16017999875 0.95663499825
 O7 O 0.1448449995 0.08982000125 0.79336500175
 O7 O 0.1448449995 0.08982000125 0.95663499825
 O7 O 0.1051550005 0.16017999875 0.79336500175
 O8 O 0.0625 0.0625 0.75
 O8 O 0.0625 0.0625 1.0
 O8 O 0.1875 0.1875 0.75
 O8 O 0.1875 0.1875 1.0
 O8 O 0.1875 0.0625 0.75
 O8 O 0.1875 0.0625 1.0
 O8 O 0.0625 0.1875 0.75
 O8 O 0.0625 0.1875 1.0
 O9 O 0.03091249975 0.06469249725 0.75
 O9 O 0.03091249975 0.06469249725 1.0
 O9 O 0.21908750025 0.18530750275 0.75
 O9 O 0.21908750025 0.18530750275 1.0
 O9 O 0.21908750025 0.06469249725 0.75
 O9 O 0.21908750025 0.06469249725 1.0
 O9 O 0.03091249975 0.18530750275 0.75
 O9 O 0.03091249975 0.18530750275 1.0
 O9 O 0.15591249975 0.18969249725 0.75
 O9 O 0.15591249975 0.18969249725 1.0
 O9 O 0.09408750025 0.06030750275 0.75
 O9 O 0.09408750025 0.06030750275 1.0
 O9 O 0.09408750025 0.18969249725 0.75
 O9 O 0.09408750025 0.18969249725 1.0
 O9 O 0.15591249975 0.06030750275 0.75
 O9 O 0.15591249975 0.06030750275 1.0
 O10 O 0.0 0.05657500025 0.75
 O10 O 0.0 0.05657500025 1.0
 O10 O 0.25 0.05657500025 0.75
 O10 O 0.25 0.05657500025 1.0
 O10 O 0.0 0.19342499975 0.75
 O10 O 0.0 0.19342499975 1.0
 O10 O 0.25 0.19342499975 0.75
 O10 O 0.25 0.19342499975 1.0
 O10 O 0.125 0.18157500025 0.75
 O10 O 0.125 0.18157500025 1.0
 O10 O 0.125 0.06842499975 0.75
 O10 O 0.125 0.06842499975 1.0
 O2 O 0.0476175025 0.08963499975 0.70677249875
 O2 O 0.0476175025 0.08963499975 1.04322750125
 O2 O 0.2023824975 0.16036500025 0.70677249875
 O2 O 0.2023824975 0.16036500025 1.04322750125
 O2 O 0.2023824975 0.08963499975 0.70677249875
 O2 O 0.2023824975 0.08963499975 1.04322750125
 O2 O 0.0476175025 0.16036500025 0.70677249875
 O2 O 0.0476175025 0.16036500025 1.04322750125
 O2 O 0.1726175025 0.21463499975 0.70677249875
 O2 O 0.1726175025 0.21463499975 1.04322750125
 O2 O 0.0773824975 0.03536500025 0.70677249875
 O2 O 0.0773824975 0.03536500025 1.04322750125
 O2 O 0.0773824975 0.21463499975 0.70677249875
 O2 O 0.0773824975 0.21463499975 1.04322750125
 O2 O 0.1726175025 0.03536500025 0.70677249875
 O2 O 0.1726175025 0.03536500025 1.04322750125
 O7 O 0.0198449995 0.03517999875 0.70663499825
 O7 O 0.0198449995 0.03517999875 1.04336500175
 O7 O 0.2301550005 0.21482000125 0.70663499825
 O7 O 0.2301550005 0.21482000125 1.04336500175
 O7 O 0.2301550005 0.03517999875 0.70663499825
 O7 O 0.2301550005 0.03517999875 1.04336500175
 O7 O 0.0198449995 0.21482000125 0.70663499825
 O7 O 0.0198449995 0.21482000125 1.04336500175
 O7 O 0.1448449995 0.16017999875 0.70663499825
 O7 O 0.1448449995 0.16017999875 1.04336500175
 O7 O 0.1051550005 0.08982000125 0.70663499825
 O7 O 0.1051550005 0.08982000125 1.04336500175
 O7 O 0.1051550005 0.16017999875 0.70663499825
 O7 O 0.1051550005 0.16017999875 1.04336500175
 O7 O 0.1448449995 0.08982000125 0.70663499825
 O7 O 0.1448449995 0.08982000125 1.04336500175
 Si1 Si 0.3172350005 0.02160999925 0.8248350025
 Si1 Si 0.4327649995 0.22839000075 0.9251649975
 Si1 Si 0.4327649995 0.22839000075 0.8248350025
 Si1 Si 0.3172350005 0.02160999925 0.9251649975
 Si1 Si 0.4327649995 0.02160999925 0.9251649975
 Si1 Si 0.3172350005 0.22839000075 0.8248350025
 Si1 Si 0.3172350005 0.22839000075 0.9251649975
 Si1 Si 0.4327649995 0.02160999925 0.8248350025
 Si1 Si 0.4422350005 0.14660999925 0.8248350025
 Si1 Si 0.3077649995 0.10339000075 0.9251649975
 Si1 Si 0.3077649995 0.10339000075 0.8248350025
 Si1 Si 0.4422350005 0.14660999925 0.9251649975
 Si1 Si 0.3077649995 0.14660999925 0.9251649975
 Si1 Si 0.4422350005 0.10339000075 0.8248350025
 Si1 Si 0.4422350005 0.10339000075 0.9251649975
 Si1 Si 0.3077649995 0.14660999925 0.8248350025
 Si2 Si 0.28017999975 0.02157500025 0.824832499
 Si2 Si 0.46982000025000004 0.22842499975 0.925167501
 Si2 Si 0.46982000025000004 0.22842499975 0.824832499
 Si2 Si 0.28017999975 0.02157500025 0.925167501
 Si2 Si 0.46982000025000004 0.02157500025 0.925167501
 Si2 Si 0.28017999975 0.22842499975 0.824832499
 Si2 Si 0.28017999975 0.22842499975 0.925167501
 Si2 Si 0.46982000025000004 0.02157500025 0.824832499
 Si2 Si 0.40517999974999996 0.14657500025 0.824832499
 Si2 Si 0.34482000025 0.10342499975 0.925167501
 Si2 Si 0.34482000025 0.10342499975 0.824832499
 Si2 Si 0.40517999974999996 0.14657500025 0.925167501
 Si2 Si 0.34482000025 0.14657500025 0.925167501
 Si2 Si 0.40517999974999996 0.10342499975 0.824832499
 Si2 Si 0.40517999974999996 0.10342499975 0.925167501
 Si2 Si 0.34482000025 0.14657500025 0.824832499
 Si3 Si 0.297362499 0.0764449985 0.75
 Si3 Si 0.297362499 0.0764449985 1.0
 Si3 Si 0.452637501 0.1735550015 0.75
 Si3 Si 0.452637501 0.1735550015 1.0
 Si3 Si 0.452637501 0.0764449985 0.75
 Si3 Si 0.452637501 0.0764449985 1.0
 Si3 Si 0.297362499 0.1735550015 0.75
 Si3 Si 0.297362499 0.1735550015 1.0
 Si3 Si 0.422362499 0.2014449985 0.75
 Si3 Si 0.422362499 0.2014449985 1.0
 Si3 Si 0.327637501 0.0485550015 0.75
 Si3 Si 0.327637501 0.0485550015 1.0
 Si3 Si 0.327637501 0.2014449985 0.75
 Si3 Si 0.327637501 0.2014449985 1.0
 Si3 Si 0.422362499 0.0485550015 0.75
 Si3 Si 0.422362499 0.0485550015 1.0
 Si4 Si 0.26785499975 0.04804499825 0.75
 Si4 Si 0.26785499975 0.04804499825 1.0
 Si4 Si 0.48214500025 0.20195500175 0.75
 Si4 Si 0.48214500025 0.20195500175 1.0
 Si4 Si 0.48214500025 0.04804499825 0.75
 Si4 Si 0.48214500025 0.04804499825 1.0
 Si4 Si 0.26785499975 0.20195500175 0.75
 Si4 Si 0.26785499975 0.20195500175 1.0
 Si4 Si 0.39285499975 0.17304499825 0.75
 Si4 Si 0.39285499975 0.17304499825 1.0
 Si4 Si 0.35714500025 0.07695500175 0.75
 Si4 Si 0.35714500025 0.07695500175 1.0
 Si4 Si 0.35714500025 0.17304499825 0.75
 Si4 Si 0.35714500025 0.17304499825 1.0
 Si4 Si 0.39285499975 0.07695500175 0.75
 Si4 Si 0.39285499975 0.07695500175 1.0
 O1 O 0.29870250075 0.02753500075 0.82191000125
 O1 O 0.45129749925 0.22246499925 0.92808999875
 O1 O 0.45129749925 0.22246499925 0.82191000125
 O1 O 0.29870250075 0.02753500075 0.92808999875
 O1 O 0.45129749925 0.02753500075 0.92808999875
 O1 O 0.29870250075 0.22246499925 0.82191000125
 O1 O 0.29870250075 0.22246499925 0.92808999875
 O1 O 0.45129749925 0.02753500075 0.82191000125
 O1 O 0.42370250075 0.15253500075 0.82191000125
 O1 O 0.32629749925 0.09746499925 0.92808999875
 O1 O 0.32629749925 0.09746499925 0.82191000125
 O1 O 0.42370250075 0.15253500075 0.92808999875
 O1 O 0.32629749925 0.15253500075 0.92808999875
 O1 O 0.42370250075 0.09746499925 0.82191000125
 O1 O 0.42370250075 0.09746499925 0.92808999875
 O1 O 0.32629749925 0.15253500075 0.82191000125
 O2 O 0.3273824975 0.03536500025 0.7932275012500001
 O2 O 0.42261750249999996 0.21463499975 0.95677249875
 O2 O 0.42261750249999996 0.21463499975 0.7932275012500001
 O2 O 0.3273824975 0.03536500025 0.95677249875
 O2 O 0.42261750249999996 0.03536500025 0.95677249875
 O2 O 0.3273824975 0.21463499975 0.7932275012500001
 O2 O 0.3273824975 0.21463499975 0.95677249875
 O2 O 0.42261750249999996 0.03536500025 0.7932275012500001
 O2 O 0.45238249750000004 0.16036500025 0.7932275012500001
 O2 O 0.2976175025 0.08963499975 0.95677249875
 O2 O 0.2976175025 0.08963499975 0.7932275012500001
 O2 O 0.45238249750000004 0.16036500025 0.95677249875
 O2 O 0.2976175025 0.16036500025 0.95677249875
 O2 O 0.45238249750000004 0.08963499975 0.7932275012500001
 O2 O 0.45238249750000004 0.08963499975 0.95677249875
 O2 O 0.2976175025 0.16036500025 0.7932275012500001
 O3 O 0.31933250275 0.0 0.80936750025
 O3 O 0.31933250275 0.25 0.80936750025
 O3 O 0.43066749725 0.0 0.94063249975
 O3 O 0.43066749725 0.25 0.94063249975
 O3 O 0.43066749725 0.0 0.80936750025
 O3 O 0.43066749725 0.25 0.80936750025
 O3 O 0.31933250275 0.0 0.94063249975
 O3 O 0.31933250275 0.25 0.94063249975
 O3 O 0.44433250275 0.125 0.80936750025
 O3 O 0.30566749725 0.125 0.94063249975
 O3 O 0.30566749725 0.125 0.80936750025
 O3 O 0.44433250275 0.125 0.94063249975
 O4 O 0.32323499775 0.02379499925 0.875
 O4 O 0.42676500225 0.22620500075 0.875
 O4 O 0.42676500225 0.02379499925 0.875
 O4 O 0.32323499775 0.22620500075 0.875
 O4 O 0.44823499775 0.14879499925 0.875
 O4 O 0.30176500225 0.10120500075 0.875
 O4 O 0.30176500225 0.14879499925 0.875
 O4 O 0.44823499775 0.10120500075 0.875
 O5 O 0.2781475 0.0 0.8090699985
 O5 O 0.2781475 0.25 0.8090699985
 O5 O 0.4718525 0.0 0.9409300015
 O5 O 0.4718525 0.25 0.9409300015
 O5 O 0.4718525 0.0 0.8090699985
 O5 O 0.4718525 0.25 0.8090699985
 O5 O 0.2781475 0.0 0.9409300015
 O5 O 0.2781475 0.25 0.9409300015
 O5 O 0.4031475 0.125 0.8090699985
 O5 O 0.3468525 0.125 0.9409300015
 O5 O 0.3468525 0.125 0.8090699985
 O5 O 0.4031475 0.125 0.9409300015
 O6 O 0.27415999950000003 0.0236249995 0.875
 O6 O 0.47584000049999997 0.2263750005 0.875
 O6 O 0.47584000049999997 0.0236249995 0.875
 O6 O 0.27415999950000003 0.2263750005 0.875
 O6 O 0.39915999950000003 0.1486249995 0.875
 O6 O 0.35084000049999997 0.1013750005 0.875
 O6 O 0.35084000049999997 0.1486249995 0.875
 O6 O 0.39915999950000003 0.1013750005 0.875
 O7 O 0.2698449995 0.03517999875 0.79336500175
 O7 O 0.48015500050000004 0.21482000125 0.95663499825
 O7 O 0.48015500050000004 0.21482000125 0.79336500175
 O7 O 0.2698449995 0.03517999875 0.95663499825
 O7 O 0.48015500050000004 0.03517999875 0.95663499825
 O7 O 0.2698449995 0.21482000125 0.79336500175
 O7 O 0.2698449995 0.21482000125 0.95663499825
 O7 O 0.48015500050000004 0.03517999875 0.79336500175
 O7 O 0.39484499949999996 0.16017999875 0.79336500175
 O7 O 0.3551550005 0.08982000125 0.95663499825
 O7 O 0.3551550005 0.08982000125 0.79336500175
 O7 O 0.39484499949999996 0.16017999875 0.95663499825
 O7 O 0.3551550005 0.16017999875 0.95663499825
 O7 O 0.39484499949999996 0.08982000125 0.79336500175
 O7 O 0.39484499949999996 0.08982000125 0.95663499825
 O7 O 0.3551550005 0.16017999875 0.79336500175
 O8 O 0.3125 0.0625 0.75
 O8 O 0.3125 0.0625 1.0
 O8 O 0.4375 0.1875 0.75
 O8 O 0.4375 0.1875 1.0
 O8 O 0.4375 0.0625 0.75
 O8 O 0.4375 0.0625 1.0
 O8 O 0.3125 0.1875 0.75
 O8 O 0.3125 0.1875 1.0
 O9 O 0.28091249975 0.06469249725 0.75
 O9 O 0.28091249975 0.06469249725 1.0
 O9 O 0.46908750025 0.18530750275 0.75
 O9 O 0.46908750025 0.18530750275 1.0
 O9 O 0.46908750025 0.06469249725 0.75
 O9 O 0.46908750025 0.06469249725 1.0
 O9 O 0.28091249975 0.18530750275 0.75
 O9 O 0.28091249975 0.18530750275 1.0
 O9 O 0.40591249975 0.18969249725 0.75
 O9 O 0.40591249975 0.18969249725 1.0
 O9 O 0.34408750025 0.06030750275 0.75
 O9 O 0.34408750025 0.06030750275 1.0
 O9 O 0.34408750025 0.18969249725 0.75
 O9 O 0.34408750025 0.18969249725 1.0
 O9 O 0.40591249975 0.06030750275 0.75
 O9 O 0.40591249975 0.06030750275 1.0
 O10 O 0.25 0.05657500025 0.75
 O10 O 0.25 0.05657500025 1.0
 O10 O 0.5 0.05657500025 0.75
 O10 O 0.5 0.05657500025 1.0
 O10 O 0.25 0.19342499975 0.75
 O10 O 0.25 0.19342499975 1.0
 O10 O 0.5 0.19342499975 0.75
 O10 O 0.5 0.19342499975 1.0
 O10 O 0.375 0.18157500025 0.75
 O10 O 0.375 0.18157500025 1.0
 O10 O 0.375 0.06842499975 0.75
 O10 O 0.375 0.06842499975 1.0
 O2 O 0.2976175025 0.08963499975 0.70677249875
 O2 O 0.2976175025 0.08963499975 1.04322750125
 O2 O 0.45238249750000004 0.16036500025 0.70677249875
 O2 O 0.45238249750000004 0.16036500025 1.04322750125
 O2 O 0.45238249750000004 0.08963499975 0.70677249875
 O2 O 0.45238249750000004 0.08963499975 1.04322750125
 O2 O 0.2976175025 0.16036500025 0.70677249875
 O2 O 0.2976175025 0.16036500025 1.04322750125
 O2 O 0.42261750249999996 0.21463499975 0.70677249875
 O2 O 0.42261750249999996 0.21463499975 1.04322750125
 O2 O 0.3273824975 0.03536500025 0.70677249875
 O2 O 0.3273824975 0.03536500025 1.04322750125
 O2 O 0.3273824975 0.21463499975 0.70677249875
 O2 O 0.3273824975 0.21463499975 1.04322750125
 O2 O 0.42261750249999996 0.03536500025 0.70677249875
 O2 O 0.42261750249999996 0.03536500025 1.04322750125
 O7 O 0.2698449995 0.03517999875 0.70663499825
 O7 O 0.2698449995 0.03517999875 1.04336500175
 O7 O 0.48015500050000004 0.21482000125 0.70663499825
 O7 O 0.48015500050000004 0.21482000125 1.04336500175
 O7 O 0.48015500050000004 0.03517999875 0.70663499825
 O7 O 0.48015500050000004 0.03517999875 1.04336500175
 O7 O 0.2698449995 0.21482000125 0.70663499825
 O7 O 0.2698449995 0.21482000125 1.04336500175
 O7 O 0.39484499949999996 0.16017999875 0.70663499825
 O7 O 0.39484499949999996 0.16017999875 1.04336500175
 O7 O 0.3551550005 0.08982000125 0.70663499825
 O7 O 0.3551550005 0.08982000125 1.04336500175
 O7 O 0.3551550005 0.16017999875 0.70663499825
 O7 O 0.3551550005 0.16017999875 1.04336500175
 O7 O 0.39484499949999996 0.08982000125 0.70663499825
 O7 O 0.39484499949999996 0.08982000125 1.04336500175
 Si1 Si 0.5672350005 0.02160999925 0.8248350025
 Si1 Si 0.6827649995 0.22839000075 0.9251649975
 Si1 Si 0.6827649995 0.22839000075 0.8248350025
 Si1 Si 0.5672350005 0.02160999925 0.9251649975
 Si1 Si 0.6827649995 0.02160999925 0.9251649975
 Si1 Si 0.5672350005 0.22839000075 0.8248350025
 Si1 Si 0.5672350005 0.22839000075 0.9251649975
 Si1 Si 0.6827649995 0.02160999925 0.8248350025
 Si1 Si 0.6922350005 0.14660999925 0.8248350025
 Si1 Si 0.5577649995 0.10339000075 0.9251649975
 Si1 Si 0.5577649995 0.10339000075 0.8248350025
 Si1 Si 0.6922350005 0.14660999925 0.9251649975
 Si1 Si 0.5577649995 0.14660999925 0.9251649975
 Si1 Si 0.6922350005 0.10339000075 0.8248350025
 Si1 Si 0.6922350005 0.10339000075 0.9251649975
 Si1 Si 0.5577649995 0.14660999925 0.8248350025
 Si2 Si 0.5301799997500001 0.02157500025 0.824832499
 Si2 Si 0.71982000025 0.22842499975 0.925167501
 Si2 Si 0.71982000025 0.22842499975 0.824832499
 Si2 Si 0.5301799997500001 0.02157500025 0.925167501
 Si2 Si 0.71982000025 0.02157500025 0.925167501
 Si2 Si 0.5301799997500001 0.22842499975 0.824832499
 Si2 Si 0.5301799997500001 0.22842499975 0.925167501
 Si2 Si 0.71982000025 0.02157500025 0.824832499
 Si2 Si 0.65517999975 0.14657500025 0.824832499
 Si2 Si 0.5948200002499999 0.10342499975 0.925167501
 Si2 Si 0.5948200002499999 0.10342499975 0.824832499
 Si2 Si 0.65517999975 0.14657500025 0.925167501
 Si2 Si 0.5948200002499999 0.14657500025 0.925167501
 Si2 Si 0.65517999975 0.10342499975 0.824832499
 Si2 Si 0.65517999975 0.10342499975 0.925167501
 Si2 Si 0.5948200002499999 0.14657500025 0.824832499
 Si3 Si 0.547362499 0.0764449985 0.75
 Si3 Si 0.547362499 0.0764449985 1.0
 Si3 Si 0.702637501 0.1735550015 0.75
 Si3 Si 0.702637501 0.1735550015 1.0
 Si3 Si 0.702637501 0.0764449985 0.75
 Si3 Si 0.702637501 0.0764449985 1.0
 Si3 Si 0.547362499 0.1735550015 0.75
 Si3 Si 0.547362499 0.1735550015 1.0
 Si3 Si 0.672362499 0.2014449985 0.75
 Si3 Si 0.672362499 0.2014449985 1.0
 Si3 Si 0.577637501 0.0485550015 0.75
 Si3 Si 0.577637501 0.0485550015 1.0
 Si3 Si 0.577637501 0.2014449985 0.75
 Si3 Si 0.577637501 0.2014449985 1.0
 Si3 Si 0.672362499 0.0485550015 0.75
 Si3 Si 0.672362499 0.0485550015 1.0
 Si4 Si 0.5178549997499999 0.04804499825 0.75
 Si4 Si 0.5178549997499999 0.04804499825 1.0
 Si4 Si 0.7321450002500001 0.20195500175 0.75
 Si4 Si 0.7321450002500001 0.20195500175 1.0
 Si4 Si 0.7321450002500001 0.04804499825 0.75
 Si4 Si 0.7321450002500001 0.04804499825 1.0
 Si4 Si 0.5178549997499999 0.20195500175 0.75
 Si4 Si 0.5178549997499999 0.20195500175 1.0
 Si4 Si 0.6428549997499999 0.17304499825 0.75
 Si4 Si 0.6428549997499999 0.17304499825 1.0
 Si4 Si 0.6071450002500001 0.07695500175 0.75
 Si4 Si 0.6071450002500001 0.07695500175 1.0
 Si4 Si 0.6071450002500001 0.17304499825 0.75
 Si4 Si 0.6071450002500001 0.17304499825 1.0
 Si4 Si 0.6428549997499999 0.07695500175 0.75
 Si4 Si 0.6428549997499999 0.07695500175 1.0
 O1 O 0.5487025007499999 0.02753500075 0.82191000125
 O1 O 0.7012974992500001 0.22246499925 0.92808999875
 O1 O 0.7012974992500001 0.22246499925 0.82191000125
 O1 O 0.5487025007499999 0.02753500075 0.92808999875
 O1 O 0.7012974992500001 0.02753500075 0.92808999875
 O1 O 0.5487025007499999 0.22246499925 0.82191000125
 O1 O 0.5487025007499999 0.22246499925 0.92808999875
 O1 O 0.7012974992500001 0.02753500075 0.82191000125
 O1 O 0.6737025007499999 0.15253500075 0.82191000125
 O1 O 0.5762974992500001 0.09746499925 0.92808999875
 O1 O 0.5762974992500001 0.09746499925 0.82191000125
 O1 O 0.6737025007499999 0.15253500075 0.92808999875
 O1 O 0.5762974992500001 0.15253500075 0.92808999875
 O1 O 0.6737025007499999 0.09746499925 0.82191000125
 O1 O 0.6737025007499999 0.09746499925 0.92808999875
 O1 O 0.5762974992500001 0.15253500075 0.82191000125
 O2 O 0.5773824974999999 0.03536500025 0.7932275012500001
 O2 O 0.6726175025 0.21463499975 0.95677249875
 O2 O 0.6726175025 0.21463499975 0.7932275012500001
 O2 O 0.5773824974999999 0.03536500025 0.95677249875
 O2 O 0.6726175025 0.03536500025 0.95677249875
 O2 O 0.5773824974999999 0.21463499975 0.7932275012500001
 O2 O 0.5773824974999999 0.21463499975 0.95677249875
 O2 O 0.6726175025 0.03536500025 0.7932275012500001
 O2 O 0.7023824975 0.16036500025 0.7932275012500001
 O2 O 0.5476175025000001 0.08963499975 0.95677249875
 O2 O 0.5476175025000001 0.08963499975 0.7932275012500001
 O2 O 0.7023824975 0.16036500025 0.95677249875
 O2 O 0.5476175025000001 0.16036500025 0.95677249875
 O2 O 0.7023824975 0.08963499975 0.7932275012500001
 O2 O 0.7023824975 0.08963499975 0.95677249875
 O2 O 0.5476175025000001 0.16036500025 0.7932275012500001
 O3 O 0.56933250275 0.0 0.80936750025
 O3 O 0.56933250275 0.25 0.80936750025
 O3 O 0.68066749725 0.0 0.94063249975
 O3 O 0.68066749725 0.25 0.94063249975
 O3 O 0.68066749725 0.0 0.80936750025
 O3 O 0.68066749725 0.25 0.80936750025
 O3 O 0.56933250275 0.0 0.94063249975
 O3 O 0.56933250275 0.25 0.94063249975
 O3 O 0.69433250275 0.125 0.80936750025
 O3 O 0.55566749725 0.125 0.94063249975
 O3 O 0.55566749725 0.125 0.80936750025
 O3 O 0.69433250275 0.125 0.94063249975
 O4 O 0.57323499775 0.02379499925 0.875
 O4 O 0.67676500225 0.22620500075 0.875
 O4 O 0.67676500225 0.02379499925 0.875
 O4 O 0.57323499775 0.22620500075 0.875
 O4 O 0.69823499775 0.14879499925 0.875
 O4 O 0.55176500225 0.10120500075 0.875
 O4 O 0.55176500225 0.14879499925 0.875
 O4 O 0.69823499775 0.10120500075 0.875
 O5 O 0.5281475 0.0 0.8090699985
 O5 O 0.5281475 0.25 0.8090699985
 O5 O 0.7218525 0.0 0.9409300015
 O5 O 0.7218525 0.25 0.9409300015
 O5 O 0.7218525 0.0 0.8090699985
 O5 O 0.7218525 0.25 0.8090699985
 O5 O 0.5281475 0.0 0.9409300015
 O5 O 0.5281475 0.25 0.9409300015
 O5 O 0.6531475 0.125 0.8090699985
 O5 O 0.5968525 0.125 0.9409300015
 O5 O 0.5968525 0.125 0.8090699985
 O5 O 0.6531475 0.125 0.9409300015
 O6 O 0.5241599995 0.0236249995 0.875
 O6 O 0.7258400005 0.2263750005 0.875
 O6 O 0.7258400005 0.0236249995 0.875
 O6 O 0.5241599995 0.2263750005 0.875
 O6 O 0.6491599995 0.1486249995 0.875
 O6 O 0.6008400005 0.1013750005 0.875
 O6 O 0.6008400005 0.1486249995 0.875
 O6 O 0.6491599995 0.1013750005 0.875
 O7 O 0.5198449995000001 0.03517999875 0.79336500175
 O7 O 0.7301550005 0.21482000125 0.95663499825
 O7 O 0.7301550005 0.21482000125 0.79336500175
 O7 O 0.5198449995000001 0.03517999875 0.95663499825
 O7 O 0.7301550005 0.03517999875 0.95663499825
 O7 O 0.5198449995000001 0.21482000125 0.79336500175
 O7 O 0.5198449995000001 0.21482000125 0.95663499825
 O7 O 0.7301550005 0.03517999875 0.79336500175
 O7 O 0.6448449995 0.16017999875 0.79336500175
 O7 O 0.6051550004999999 0.08982000125 0.95663499825
 O7 O 0.6051550004999999 0.08982000125 0.79336500175
 O7 O 0.6448449995 0.16017999875 0.95663499825
 O7 O 0.6051550004999999 0.16017999875 0.95663499825
 O7 O 0.6448449995 0.08982000125 0.79336500175
 O7 O 0.6448449995 0.08982000125 0.95663499825
 O7 O 0.6051550004999999 0.16017999875 0.79336500175
 O8 O 0.5625 0.0625 0.75
 O8 O 0.5625 0.0625 1.0
 O8 O 0.6875 0.1875 0.75
 O8 O 0.6875 0.1875 1.0
 O8 O 0.6875 0.0625 0.75
 O8 O 0.6875 0.0625 1.0
 O8 O 0.5625 0.1875 0.75
 O8 O 0.5625 0.1875 1.0
 O9 O 0.53091249975 0.06469249725 0.75
 O9 O 0.53091249975 0.06469249725 1.0
 O9 O 0.71908750025 0.18530750275 0.75
 O9 O 0.71908750025 0.18530750275 1.0
 O9 O 0.71908750025 0.06469249725 0.75
 O9 O 0.71908750025 0.06469249725 1.0
 O9 O 0.53091249975 0.18530750275 0.75
 O9 O 0.53091249975 0.18530750275 1.0
 O9 O 0.65591249975 0.18969249725 0.75
 O9 O 0.65591249975 0.18969249725 1.0
 O9 O 0.59408750025 0.06030750275 0.75
 O9 O 0.59408750025 0.06030750275 1.0
 O9 O 0.59408750025 0.18969249725 0.75
 O9 O 0.59408750025 0.18969249725 1.0
 O9 O 0.65591249975 0.06030750275 0.75
 O9 O 0.65591249975 0.06030750275 1.0
 O10 O 0.5 0.05657500025 0.75
 O10 O 0.5 0.05657500025 1.0
 O10 O 0.75 0.05657500025 0.75
 O10 O 0.75 0.05657500025 1.0
 O10 O 0.5 0.19342499975 0.75
 O10 O 0.5 0.19342499975 1.0
 O10 O 0.75 0.19342499975 0.75
 O10 O 0.75 0.19342499975 1.0
 O10 O 0.625 0.18157500025 0.75
 O10 O 0.625 0.18157500025 1.0
 O10 O 0.625 0.06842499975 0.75
 O10 O 0.625 0.06842499975 1.0
 O2 O 0.5476175025000001 0.08963499975 0.70677249875
 O2 O 0.5476175025000001 0.08963499975 1.04322750125
 O2 O 0.7023824975 0.16036500025 0.70677249875
 O2 O 0.7023824975 0.16036500025 1.04322750125
 O2 O 0.7023824975 0.08963499975 0.70677249875
 O2 O 0.7023824975 0.08963499975 1.04322750125
 O2 O 0.5476175025000001 0.16036500025 0.70677249875
 O2 O 0.5476175025000001 0.16036500025 1.04322750125
 O2 O 0.6726175025 0.21463499975 0.70677249875
 O2 O 0.6726175025 0.21463499975 1.04322750125
 O2 O 0.5773824974999999 0.03536500025 0.70677249875
 O2 O 0.5773824974999999 0.03536500025 1.04322750125
 O2 O 0.5773824974999999 0.21463499975 0.70677249875
 O2 O 0.5773824974999999 0.21463499975 1.04322750125
 O2 O 0.6726175025 0.03536500025 0.70677249875
 O2 O 0.6726175025 0.03536500025 1.04322750125
 O7 O 0.5198449995000001 0.03517999875 0.70663499825
 O7 O 0.5198449995000001 0.03517999875 1.04336500175
 O7 O 0.7301550005 0.21482000125 0.70663499825
 O7 O 0.7301550005 0.21482000125 1.04336500175
 O7 O 0.7301550005 0.03517999875 0.70663499825
 O7 O 0.7301550005 0.03517999875 1.04336500175
 O7 O 0.5198449995000001 0.21482000125 0.70663499825
 O7 O 0.5198449995000001 0.21482000125 1.04336500175
 O7 O 0.6448449995 0.16017999875 0.70663499825
 O7 O 0.6448449995 0.16017999875 1.04336500175
 O7 O 0.6051550004999999 0.08982000125 0.70663499825
 O7 O 0.6051550004999999 0.08982000125 1.04336500175
 O7 O 0.6051550004999999 0.16017999875 0.70663499825
 O7 O 0.6051550004999999 0.16017999875 1.04336500175
 O7 O 0.6448449995 0.08982000125 0.70663499825
 O7 O 0.6448449995 0.08982000125 1.04336500175
 Si1 Si 0.8172350005 0.02160999925 0.8248350025
 Si1 Si 0.9327649995 0.22839000075 0.9251649975
 Si1 Si 0.9327649995 0.22839000075 0.8248350025
 Si1 Si 0.8172350005 0.02160999925 0.9251649975
 Si1 Si 0.9327649995 0.02160999925 0.9251649975
 Si1 Si 0.8172350005 0.22839000075 0.8248350025
 Si1 Si 0.8172350005 0.22839000075 0.9251649975
 Si1 Si 0.9327649995 0.02160999925 0.8248350025
 Si1 Si 0.9422350005 0.14660999925 0.8248350025
 Si1 Si 0.8077649995 0.10339000075 0.9251649975
 Si1 Si 0.8077649995 0.10339000075 0.8248350025
 Si1 Si 0.9422350005 0.14660999925 0.9251649975
 Si1 Si 0.8077649995 0.14660999925 0.9251649975
 Si1 Si 0.9422350005 0.10339000075 0.8248350025
 Si1 Si 0.9422350005 0.10339000075 0.9251649975
 Si1 Si 0.8077649995 0.14660999925 0.8248350025
 Si2 Si 0.7801799997500001 0.02157500025 0.824832499
 Si2 Si 0.96982000025 0.22842499975 0.925167501
 Si2 Si 0.96982000025 0.22842499975 0.824832499
 Si2 Si 0.7801799997500001 0.02157500025 0.925167501
 Si2 Si 0.96982000025 0.02157500025 0.925167501
 Si2 Si 0.7801799997500001 0.22842499975 0.824832499
 Si2 Si 0.7801799997500001 0.22842499975 0.925167501
 Si2 Si 0.96982000025 0.02157500025 0.824832499
 Si2 Si 0.90517999975 0.14657500025 0.824832499
 Si2 Si 0.8448200002499999 0.10342499975 0.925167501
 Si2 Si 0.8448200002499999 0.10342499975 0.824832499
 Si2 Si 0.90517999975 0.14657500025 0.925167501
 Si2 Si 0.8448200002499999 0.14657500025 0.925167501
 Si2 Si 0.90517999975 0.10342499975 0.824832499
 Si2 Si 0.90517999975 0.10342499975 0.925167501
 Si2 Si 0.8448200002499999 0.14657500025 0.824832499
 Si3 Si 0.797362499 0.0764449985 0.75
 Si3 Si 0.797362499 0.0764449985 1.0
 Si3 Si 0.952637501 0.1735550015 0.75
 Si3 Si 0.952637501 0.1735550015 1.0
 Si3 Si 0.952637501 0.0764449985 0.75
 Si3 Si 0.952637501 0.0764449985 1.0
 Si3 Si 0.797362499 0.1735550015 0.75
 Si3 Si 0.797362499 0.1735550015 1.0
 Si3 Si 0.922362499 0.2014449985 0.75
 Si3 Si 0.922362499 0.2014449985 1.0
 Si3 Si 0.827637501 0.0485550015 0.75
 Si3 Si 0.827637501 0.0485550015 1.0
 Si3 Si 0.827637501 0.2014449985 0.75
 Si3 Si 0.827637501 0.2014449985 1.0
 Si3 Si 0.922362499 0.0485550015 0.75
 Si3 Si 0.922362499 0.0485550015 1.0
 Si4 Si 0.7678549997499999 0.04804499825 0.75
 Si4 Si 0.7678549997499999 0.04804499825 1.0
 Si4 Si 0.9821450002500001 0.20195500175 0.75
 Si4 Si 0.9821450002500001 0.20195500175 1.0
 Si4 Si 0.9821450002500001 0.04804499825 0.75
 Si4 Si 0.9821450002500001 0.04804499825 1.0
 Si4 Si 0.7678549997499999 0.20195500175 0.75
 Si4 Si 0.7678549997499999 0.20195500175 1.0
 Si4 Si 0.8928549997499999 0.17304499825 0.75
 Si4 Si 0.8928549997499999 0.17304499825 1.0
 Si4 Si 0.8571450002500001 0.07695500175 0.75
 Si4 Si 0.8571450002500001 0.07695500175 1.0
 Si4 Si 0.8571450002500001 0.17304499825 0.75
 Si4 Si 0.8571450002500001 0.17304499825 1.0
 Si4 Si 0.8928549997499999 0.07695500175 0.75
 Si4 Si 0.8928549997499999 0.07695500175 1.0
 O1 O 0.7987025007499999 0.02753500075 0.82191000125
 O1 O 0.9512974992500001 0.22246499925 0.92808999875
 O1 O 0.9512974992500001 0.22246499925 0.82191000125
 O1 O 0.7987025007499999 0.02753500075 0.92808999875
 O1 O 0.9512974992500001 0.02753500075 0.92808999875
 O1 O 0.7987025007499999 0.22246499925 0.82191000125
 O1 O 0.7987025007499999 0.22246499925 0.92808999875
 O1 O 0.9512974992500001 0.02753500075 0.82191000125
 O1 O 0.9237025007499999 0.15253500075 0.82191000125
 O1 O 0.8262974992500001 0.09746499925 0.92808999875
 O1 O 0.8262974992500001 0.09746499925 0.82191000125
 O1 O 0.9237025007499999 0.15253500075 0.92808999875
 O1 O 0.8262974992500001 0.15253500075 0.92808999875
 O1 O 0.9237025007499999 0.09746499925 0.82191000125
 O1 O 0.9237025007499999 0.09746499925 0.92808999875
 O1 O 0.8262974992500001 0.15253500075 0.82191000125
 O2 O 0.8273824974999999 0.03536500025 0.7932275012500001
 O2 O 0.9226175025 0.21463499975 0.95677249875
 O2 O 0.9226175025 0.21463499975 0.7932275012500001
 O2 O 0.8273824974999999 0.03536500025 0.95677249875
 O2 O 0.9226175025 0.03536500025 0.95677249875
 O2 O 0.8273824974999999 0.21463499975 0.7932275012500001
 O2 O 0.8273824974999999 0.21463499975 0.95677249875
 O2 O 0.9226175025 0.03536500025 0.7932275012500001
 O2 O 0.9523824975 0.16036500025 0.7932275012500001
 O2 O 0.7976175025000001 0.08963499975 0.95677249875
 O2 O 0.7976175025000001 0.08963499975 0.7932275012500001
 O2 O 0.9523824975 0.16036500025 0.95677249875
 O2 O 0.7976175025000001 0.16036500025 0.95677249875
 O2 O 0.9523824975 0.08963499975 0.7932275012500001
 O2 O 0.9523824975 0.08963499975 0.95677249875
 O2 O 0.7976175025000001 0.16036500025 0.7932275012500001
 O3 O 0.81933250275 0.0 0.80936750025
 O3 O 0.81933250275 0.25 0.80936750025
 O3 O 0.93066749725 0.0 0.94063249975
 O3 O 0.93066749725 0.25 0.94063249975
 O3 O 0.93066749725 0.0 0.80936750025
 O3 O 0.93066749725 0.25 0.80936750025
 O3 O 0.81933250275 0.0 0.94063249975
 O3 O 0.81933250275 0.25 0.94063249975
 O3 O 0.94433250275 0.125 0.80936750025
 O3 O 0.80566749725 0.125 0.94063249975
 O3 O 0.80566749725 0.125 0.80936750025
 O3 O 0.94433250275 0.125 0.94063249975
 O4 O 0.82323499775 0.02379499925 0.875
 O4 O 0.92676500225 0.22620500075 0.875
 O4 O 0.92676500225 0.02379499925 0.875
 O4 O 0.82323499775 0.22620500075 0.875
 O4 O 0.94823499775 0.14879499925 0.875
 O4 O 0.80176500225 0.10120500075 0.875
 O4 O 0.80176500225 0.14879499925 0.875
 O4 O 0.94823499775 0.10120500075 0.875
 O5 O 0.7781475 0.0 0.8090699985
 O5 O 0.7781475 0.25 0.8090699985
 O5 O 0.9718525 0.0 0.9409300015
 O5 O 0.9718525 0.25 0.9409300015
 O5 O 0.9718525 0.0 0.8090699985
 O5 O 0.9718525 0.25 0.8090699985
 O5 O 0.7781475 0.0 0.9409300015
 O5 O 0.7781475 0.25 0.9409300015
 O5 O 0.9031475 0.125 0.8090699985
 O5 O 0.8468525 0.125 0.9409300015
 O5 O 0.8468525 0.125 0.8090699985
 O5 O 0.9031475 0.125 0.9409300015
 O6 O 0.7741599995 0.0236249995 0.875
 O6 O 0.9758400005 0.2263750005 0.875
 O6 O 0.9758400005 0.0236249995 0.875
 O6 O 0.7741599995 0.2263750005 0.875
 O6 O 0.8991599995 0.1486249995 0.875
 O6 O 0.8508400005 0.1013750005 0.875
 O6 O 0.8508400005 0.1486249995 0.875
 O6 O 0.8991599995 0.1013750005 0.875
 O7 O 0.7698449995000001 0.03517999875 0.79336500175
 O7 O 0.9801550005 0.21482000125 0.95663499825
 O7 O 0.9801550005 0.21482000125 0.79336500175
 O7 O 0.7698449995000001 0.03517999875 0.95663499825
 O7 O 0.9801550005 0.03517999875 0.95663499825
 O7 O 0.7698449995000001 0.21482000125 0.79336500175
 O7 O 0.7698449995000001 0.21482000125 0.95663499825
 O7 O 0.9801550005 0.03517999875 0.79336500175
 O7 O 0.8948449995 0.16017999875 0.79336500175
 O7 O 0.8551550004999999 0.08982000125 0.95663499825
 O7 O 0.8551550004999999 0.08982000125 0.79336500175
 O7 O 0.8948449995 0.16017999875 0.95663499825
 O7 O 0.8551550004999999 0.16017999875 0.95663499825
 O7 O 0.8948449995 0.08982000125 0.79336500175
 O7 O 0.8948449995 0.08982000125 0.95663499825
 O7 O 0.8551550004999999 0.16017999875 0.79336500175
 O8 O 0.8125 0.0625 0.75
 O8 O 0.8125 0.0625 1.0
 O8 O 0.9375 0.1875 0.75
 O8 O 0.9375 0.1875 1.0
 O8 O 0.9375 0.0625 0.75
 O8 O 0.9375 0.0625 1.0
 O8 O 0.8125 0.1875 0.75
 O8 O 0.8125 0.1875 1.0
 O9 O 0.78091249975 0.06469249725 0.75
 O9 O 0.78091249975 0.06469249725 1.0
 O9 O 0.96908750025 0.18530750275 0.75
 O9 O 0.96908750025 0.18530750275 1.0
 O9 O 0.96908750025 0.06469249725 0.75
 O9 O 0.96908750025 0.06469249725 1.0
 O9 O 0.78091249975 0.18530750275 0.75
 O9 O 0.78091249975 0.18530750275 1.0
 O9 O 0.90591249975 0.18969249725 0.75
 O9 O 0.90591249975 0.18969249725 1.0
 O9 O 0.84408750025 0.06030750275 0.75
 O9 O 0.84408750025 0.06030750275 1.0
 O9 O 0.84408750025 0.18969249725 0.75
 O9 O 0.84408750025 0.18969249725 1.0
 O9 O 0.90591249975 0.06030750275 0.75
 O9 O 0.90591249975 0.06030750275 1.0
 O10 O 0.75 0.05657500025 0.75
 O10 O 0.75 0.05657500025 1.0
 O10 O 1.0 0.05657500025 0.75
 O10 O 1.0 0.05657500025 1.0
 O10 O 0.75 0.19342499975 0.75
 O10 O 0.75 0.19342499975 1.0
 O10 O 1.0 0.19342499975 0.75
 O10 O 1.0 0.19342499975 1.0
 O10 O 0.875 0.18157500025 0.75
 O10 O 0.875 0.18157500025 1.0
 O10 O 0.875 0.06842499975 0.75
 O10 O 0.875 0.06842499975 1.0
 O2 O 0.7976175025000001 0.08963499975 0.70677249875
 O2 O 0.7976175025000001 0.08963499975 1.04322750125
 O2 O 0.9523824975 0.16036500025 0.70677249875
 O2 O 0.9523824975 0.16036500025 1.04322750125
 O2 O 0.9523824975 0.08963499975 0.70677249875
 O2 O 0.9523824975 0.08963499975 1.04322750125
 O2 O 0.7976175025000001 0.16036500025 0.70677249875
 O2 O 0.7976175025000001 0.16036500025 1.04322750125
 O2 O 0.9226175025 0.21463499975 0.70677249875
 O2 O 0.9226175025 0.21463499975 1.04322750125
 O2 O 0.8273824974999999 0.03536500025 0.70677249875
 O2 O 0.8273824974999999 0.03536500025 1.04322750125
 O2 O 0.8273824974999999 0.21463499975 0.70677249875
 O2 O 0.8273824974999999 0.21463499975 1.04322750125
 O2 O 0.9226175025 0.03536500025 0.70677249875
 O2 O 0.9226175025 0.03536500025 1.04322750125
 O7 O 0.7698449995000001 0.03517999875 0.70663499825
 O7 O 0.7698449995000001 0.03517999875 1.04336500175
 O7 O 0.9801550005 0.21482000125 0.70663499825
 O7 O 0.9801550005 0.21482000125 1.04336500175
 O7 O 0.9801550005 0.03517999875 0.70663499825
 O7 O 0.9801550005 0.03517999875 1.04336500175
 O7 O 0.7698449995000001 0.21482000125 0.70663499825
 O7 O 0.7698449995000001 0.21482000125 1.04336500175
 O7 O 0.8948449995 0.16017999875 0.70663499825
 O7 O 0.8948449995 0.16017999875 1.04336500175
 O7 O 0.8551550004999999 0.08982000125 0.70663499825
 O7 O 0.8551550004999999 0.08982000125 1.04336500175
 O7 O 0.8551550004999999 0.16017999875 0.70663499825
 O7 O 0.8551550004999999 0.16017999875 1.04336500175
 O7 O 0.8948449995 0.08982000125 0.70663499825
 O7 O 0.8948449995 0.08982000125 1.04336500175
 Si1 Si 0.0672350005 0.27160999925 0.8248350025
 Si1 Si 0.1827649995 0.47839000075 0.9251649975
 Si1 Si 0.1827649995 0.47839000075 0.8248350025
 Si1 Si 0.0672350005 0.27160999925 0.9251649975
 Si1 Si 0.1827649995 0.27160999925 0.9251649975
 Si1 Si 0.0672350005 0.47839000075 0.8248350025
 Si1 Si 0.0672350005 0.47839000075 0.9251649975
 Si1 Si 0.1827649995 0.27160999925 0.8248350025
 Si1 Si 0.1922350005 0.39660999925 0.8248350025
 Si1 Si 0.0577649995 0.35339000075 0.9251649975
 Si1 Si 0.0577649995 0.35339000075 0.8248350025
 Si1 Si 0.1922350005 0.39660999925 0.9251649975
 Si1 Si 0.0577649995 0.39660999925 0.9251649975
 Si1 Si 0.1922350005 0.35339000075 0.8248350025
 Si1 Si 0.1922350005 0.35339000075 0.9251649975
 Si1 Si 0.0577649995 0.39660999925 0.8248350025
 Si2 Si 0.03017999975 0.27157500025 0.824832499
 Si2 Si 0.21982000025 0.47842499974999997 0.925167501
 Si2 Si 0.21982000025 0.47842499974999997 0.824832499
 Si2 Si 0.03017999975 0.27157500025 0.925167501
 Si2 Si 0.21982000025 0.27157500025 0.925167501
 Si2 Si 0.03017999975 0.47842499974999997 0.824832499
 Si2 Si 0.03017999975 0.47842499974999997 0.925167501
 Si2 Si 0.21982000025 0.27157500025 0.824832499
 Si2 Si 0.15517999975 0.39657500025000003 0.824832499
 Si2 Si 0.09482000025 0.35342499974999997 0.925167501
 Si2 Si 0.09482000025 0.35342499974999997 0.824832499
 Si2 Si 0.15517999975 0.39657500025000003 0.925167501
 Si2 Si 0.09482000025 0.39657500025000003 0.925167501
 Si2 Si 0.15517999975 0.35342499974999997 0.824832499
 Si2 Si 0.15517999975 0.35342499974999997 0.925167501
 Si2 Si 0.09482000025 0.39657500025000003 0.824832499
 Si3 Si 0.047362499 0.32644499849999997 0.75
 Si3 Si 0.047362499 0.32644499849999997 1.0
 Si3 Si 0.202637501 0.42355500150000003 0.75
 Si3 Si 0.202637501 0.42355500150000003 1.0
 Si3 Si 0.202637501 0.32644499849999997 0.75
 Si3 Si 0.202637501 0.32644499849999997 1.0
 Si3 Si 0.047362499 0.42355500150000003 0.75
 Si3 Si 0.047362499 0.42355500150000003 1.0
 Si3 Si 0.172362499 0.45144499849999997 0.75
 Si3 Si 0.172362499 0.45144499849999997 1.0
 Si3 Si 0.077637501 0.29855500150000003 0.75
 Si3 Si 0.077637501 0.29855500150000003 1.0
 Si3 Si 0.077637501 0.45144499849999997 0.75
 Si3 Si 0.077637501 0.45144499849999997 1.0
 Si3 Si 0.172362499 0.29855500150000003 0.75
 Si3 Si 0.172362499 0.29855500150000003 1.0
 Si4 Si 0.01785499975 0.29804499824999997 0.75
 Si4 Si 0.01785499975 0.29804499824999997 1.0
 Si4 Si 0.23214500025 0.45195500175000003 0.75
 Si4 Si 0.23214500025 0.45195500175000003 1.0
 Si4 Si 0.23214500025 0.29804499824999997 0.75
 Si4 Si 0.23214500025 0.29804499824999997 1.0
 Si4 Si 0.01785499975 0.45195500175000003 0.75
 Si4 Si 0.01785499975 0.45195500175000003 1.0
 Si4 Si 0.14285499975 0.42304499824999997 0.75
 Si4 Si 0.14285499975 0.42304499824999997 1.0
 Si4 Si 0.10714500025 0.32695500175000003 0.75
 Si4 Si 0.10714500025 0.32695500175000003 1.0
 Si4 Si 0.10714500025 0.42304499824999997 0.75
 Si4 Si 0.10714500025 0.42304499824999997 1.0
 Si4 Si 0.14285499975 0.32695500175000003 0.75
 Si4 Si 0.14285499975 0.32695500175000003 1.0
 O1 O 0.04870250075 0.27753500075 0.82191000125
 O1 O 0.20129749925 0.47246499924999996 0.92808999875
 O1 O 0.20129749925 0.47246499924999996 0.82191000125
 O1 O 0.04870250075 0.27753500075 0.92808999875
 O1 O 0.20129749925 0.27753500075 0.92808999875
 O1 O 0.04870250075 0.47246499924999996 0.82191000125
 O1 O 0.04870250075 0.47246499924999996 0.92808999875
 O1 O 0.20129749925 0.27753500075 0.82191000125
 O1 O 0.17370250075 0.40253500075000004 0.82191000125
 O1 O 0.07629749925 0.34746499925 0.92808999875
 O1 O 0.07629749925 0.34746499925 0.82191000125
 O1 O 0.17370250075 0.40253500075000004 0.92808999875
 O1 O 0.07629749925 0.40253500075000004 0.92808999875
 O1 O 0.17370250075 0.34746499925 0.82191000125
 O1 O 0.17370250075 0.34746499925 0.92808999875
 O1 O 0.07629749925 0.40253500075000004 0.82191000125
 O2 O 0.0773824975 0.28536500025 0.7932275012500001
 O2 O 0.1726175025 0.46463499975 0.95677249875
 O2 O 0.1726175025 0.46463499975 0.7932275012500001
 O2 O 0.0773824975 0.28536500025 0.95677249875
 O2 O 0.1726175025 0.28536500025 0.95677249875
 O2 O 0.0773824975 0.46463499975 0.7932275012500001
 O2 O 0.0773824975 0.46463499975 0.95677249875
 O2 O 0.1726175025 0.28536500025 0.7932275012500001
 O2 O 0.2023824975 0.41036500025 0.7932275012500001
 O2 O 0.0476175025 0.33963499975 0.95677249875
 O2 O 0.0476175025 0.33963499975 0.7932275012500001
 O2 O 0.2023824975 0.41036500025 0.95677249875
 O2 O 0.0476175025 0.41036500025 0.95677249875
 O2 O 0.2023824975 0.33963499975 0.7932275012500001
 O2 O 0.2023824975 0.33963499975 0.95677249875
 O2 O 0.0476175025 0.41036500025 0.7932275012500001
 O3 O 0.06933250275 0.25 0.80936750025
 O3 O 0.06933250275 0.5 0.80936750025
 O3 O 0.18066749725 0.25 0.94063249975
 O3 O 0.18066749725 0.5 0.94063249975
 O3 O 0.18066749725 0.25 0.80936750025
 O3 O 0.18066749725 0.5 0.80936750025
 O3 O 0.06933250275 0.25 0.94063249975
 O3 O 0.06933250275 0.5 0.94063249975
 O3 O 0.19433250275 0.375 0.80936750025
 O3 O 0.05566749725 0.375 0.94063249975
 O3 O 0.05566749725 0.375 0.80936750025
 O3 O 0.19433250275 0.375 0.94063249975
 O4 O 0.07323499775 0.27379499925 0.875
 O4 O 0.17676500225 0.47620500075 0.875
 O4 O 0.17676500225 0.27379499925 0.875
 O4 O 0.07323499775 0.47620500075 0.875
 O4 O 0.19823499775 0.39879499925 0.875
 O4 O 0.05176500225 0.35120500075 0.875
 O4 O 0.05176500225 0.39879499925 0.875
 O4 O 0.19823499775 0.35120500075 0.875
 O5 O 0.0281475 0.25 0.8090699985
 O5 O 0.0281475 0.5 0.8090699985
 O5 O 0.2218525 0.25 0.9409300015
 O5 O 0.2218525 0.5 0.9409300015
 O5 O 0.2218525 0.25 0.8090699985
 O5 O 0.2218525 0.5 0.8090699985
 O5 O 0.0281475 0.25 0.9409300015
 O5 O 0.0281475 0.5 0.9409300015
 O5 O 0.1531475 0.375 0.8090699985
 O5 O 0.0968525 0.375 0.9409300015
 O5 O 0.0968525 0.375 0.8090699985
 O5 O 0.1531475 0.375 0.9409300015
 O6 O 0.0241599995 0.2736249995 0.875
 O6 O 0.2258400005 0.47637500050000003 0.875
 O6 O 0.2258400005 0.2736249995 0.875
 O6 O 0.0241599995 0.47637500050000003 0.875
 O6 O 0.1491599995 0.39862499949999997 0.875
 O6 O 0.1008400005 0.35137500050000003 0.875
 O6 O 0.1008400005 0.39862499949999997 0.875
 O6 O 0.1491599995 0.35137500050000003 0.875
 O7 O 0.0198449995 0.28517999875 0.79336500175
 O7 O 0.2301550005 0.46482000125 0.95663499825
 O7 O 0.2301550005 0.46482000125 0.79336500175
 O7 O 0.0198449995 0.28517999875 0.95663499825
 O7 O 0.2301550005 0.28517999875 0.95663499825
 O7 O 0.0198449995 0.46482000125 0.79336500175
 O7 O 0.0198449995 0.46482000125 0.95663499825
 O7 O 0.2301550005 0.28517999875 0.79336500175
 O7 O 0.1448449995 0.41017999875 0.79336500175
 O7 O 0.1051550005 0.33982000125 0.95663499825
 O7 O 0.1051550005 0.33982000125 0.79336500175
 O7 O 0.1448449995 0.41017999875 0.95663499825
 O7 O 0.1051550005 0.41017999875 0.95663499825
 O7 O 0.1448449995 0.33982000125 0.79336500175
 O7 O 0.1448449995 0.33982000125 0.95663499825
 O7 O 0.1051550005 0.41017999875 0.79336500175
 O8 O 0.0625 0.3125 0.75
 O8 O 0.0625 0.3125 1.0
 O8 O 0.1875 0.4375 0.75
 O8 O 0.1875 0.4375 1.0
 O8 O 0.1875 0.3125 0.75
 O8 O 0.1875 0.3125 1.0
 O8 O 0.0625 0.4375 0.75
 O8 O 0.0625 0.4375 1.0
 O9 O 0.03091249975 0.31469249725 0.75
 O9 O 0.03091249975 0.31469249725 1.0
 O9 O 0.21908750025 0.43530750274999996 0.75
 O9 O 0.21908750025 0.43530750274999996 1.0
 O9 O 0.21908750025 0.31469249725 0.75
 O9 O 0.21908750025 0.31469249725 1.0
 O9 O 0.03091249975 0.43530750274999996 0.75
 O9 O 0.03091249975 0.43530750274999996 1.0
 O9 O 0.15591249975 0.43969249725000004 0.75
 O9 O 0.15591249975 0.43969249725000004 1.0
 O9 O 0.09408750025 0.31030750275 0.75
 O9 O 0.09408750025 0.31030750275 1.0
 O9 O 0.09408750025 0.43969249725000004 0.75
 O9 O 0.09408750025 0.43969249725000004 1.0
 O9 O 0.15591249975 0.31030750275 0.75
 O9 O 0.15591249975 0.31030750275 1.0
 O10 O 0.0 0.30657500025 0.75
 O10 O 0.0 0.30657500025 1.0
 O10 O 0.25 0.30657500025 0.75
 O10 O 0.25 0.30657500025 1.0
 O10 O 0.0 0.44342499975 0.75
 O10 O 0.0 0.44342499975 1.0
 O10 O 0.25 0.44342499975 0.75
 O10 O 0.25 0.44342499975 1.0
 O10 O 0.125 0.43157500025 0.75
 O10 O 0.125 0.43157500025 1.0
 O10 O 0.125 0.31842499975 0.75
 O10 O 0.125 0.31842499975 1.0
 O2 O 0.0476175025 0.33963499975 0.70677249875
 O2 O 0.0476175025 0.33963499975 1.04322750125
 O2 O 0.2023824975 0.41036500025 0.70677249875
 O2 O 0.2023824975 0.41036500025 1.04322750125
 O2 O 0.2023824975 0.33963499975 0.70677249875
 O2 O 0.2023824975 0.33963499975 1.04322750125
 O2 O 0.0476175025 0.41036500025 0.70677249875
 O2 O 0.0476175025 0.41036500025 1.04322750125
 O2 O 0.1726175025 0.46463499975 0.70677249875
 O2 O 0.1726175025 0.46463499975 1.04322750125
 O2 O 0.0773824975 0.28536500025 0.70677249875
 O2 O 0.0773824975 0.28536500025 1.04322750125
 O2 O 0.0773824975 0.46463499975 0.70677249875
 O2 O 0.0773824975 0.46463499975 1.04322750125
 O2 O 0.1726175025 0.28536500025 0.70677249875
 O2 O 0.1726175025 0.28536500025 1.04322750125
 O7 O 0.0198449995 0.28517999875 0.70663499825
 O7 O 0.0198449995 0.28517999875 1.04336500175
 O7 O 0.2301550005 0.46482000125 0.70663499825
 O7 O 0.2301550005 0.46482000125 1.04336500175
 O7 O 0.2301550005 0.28517999875 0.70663499825
 O7 O 0.2301550005 0.28517999875 1.04336500175
 O7 O 0.0198449995 0.46482000125 0.70663499825
 O7 O 0.0198449995 0.46482000125 1.04336500175
 O7 O 0.1448449995 0.41017999875 0.70663499825
 O7 O 0.1448449995 0.41017999875 1.04336500175
 O7 O 0.1051550005 0.33982000125 0.70663499825
 O7 O 0.1051550005 0.33982000125 1.04336500175
 O7 O 0.1051550005 0.41017999875 0.70663499825
 O7 O 0.1051550005 0.41017999875 1.04336500175
 O7 O 0.1448449995 0.33982000125 0.70663499825
 O7 O 0.1448449995 0.33982000125 1.04336500175
 Si1 Si 0.3172350005 0.27160999925 0.8248350025
 Si1 Si 0.4327649995 0.47839000075 0.9251649975
 Si1 Si 0.4327649995 0.47839000075 0.8248350025
 Si1 Si 0.3172350005 0.27160999925 0.9251649975
 Si1 Si 0.4327649995 0.27160999925 0.9251649975
 Si1 Si 0.3172350005 0.47839000075 0.8248350025
 Si1 Si 0.3172350005 0.47839000075 0.9251649975
 Si1 Si 0.4327649995 0.27160999925 0.8248350025
 Si1 Si 0.4422350005 0.39660999925 0.8248350025
 Si1 Si 0.3077649995 0.35339000075 0.9251649975
 Si1 Si 0.3077649995 0.35339000075 0.8248350025
 Si1 Si 0.4422350005 0.39660999925 0.9251649975
 Si1 Si 0.3077649995 0.39660999925 0.9251649975
 Si1 Si 0.4422350005 0.35339000075 0.8248350025
 Si1 Si 0.4422350005 0.35339000075 0.9251649975
 Si1 Si 0.3077649995 0.39660999925 0.8248350025
 Si2 Si 0.28017999975 0.27157500025 0.824832499
 Si2 Si 0.46982000025000004 0.47842499974999997 0.925167501
 Si2 Si 0.46982000025000004 0.47842499974999997 0.824832499
 Si2 Si 0.28017999975 0.27157500025 0.925167501
 Si2 Si 0.46982000025000004 0.27157500025 0.925167501
 Si2 Si 0.28017999975 0.47842499974999997 0.824832499
 Si2 Si 0.28017999975 0.47842499974999997 0.925167501
 Si2 Si 0.46982000025000004 0.27157500025 0.824832499
 Si2 Si 0.40517999974999996 0.39657500025000003 0.824832499
 Si2 Si 0.34482000025 0.35342499974999997 0.925167501
 Si2 Si 0.34482000025 0.35342499974999997 0.824832499
 Si2 Si 0.40517999974999996 0.39657500025000003 0.925167501
 Si2 Si 0.34482000025 0.39657500025000003 0.925167501
 Si2 Si 0.40517999974999996 0.35342499974999997 0.824832499
 Si2 Si 0.40517999974999996 0.35342499974999997 0.925167501
 Si2 Si 0.34482000025 0.39657500025000003 0.824832499
 Si3 Si 0.297362499 0.32644499849999997 0.75
 Si3 Si 0.297362499 0.32644499849999997 1.0
 Si3 Si 0.452637501 0.42355500150000003 0.75
 Si3 Si 0.452637501 0.42355500150000003 1.0
 Si3 Si 0.452637501 0.32644499849999997 0.75
 Si3 Si 0.452637501 0.32644499849999997 1.0
 Si3 Si 0.297362499 0.42355500150000003 0.75
 Si3 Si 0.297362499 0.42355500150000003 1.0
 Si3 Si 0.422362499 0.45144499849999997 0.75
 Si3 Si 0.422362499 0.45144499849999997 1.0
 Si3 Si 0.327637501 0.29855500150000003 0.75
 Si3 Si 0.327637501 0.29855500150000003 1.0
 Si3 Si 0.327637501 0.45144499849999997 0.75
 Si3 Si 0.327637501 0.45144499849999997 1.0
 Si3 Si 0.422362499 0.29855500150000003 0.75
 Si3 Si 0.422362499 0.29855500150000003 1.0
 Si4 Si 0.26785499975 0.29804499824999997 0.75
 Si4 Si 0.26785499975 0.29804499824999997 1.0
 Si4 Si 0.48214500025 0.45195500175000003 0.75
 Si4 Si 0.48214500025 0.45195500175000003 1.0
 Si4 Si 0.48214500025 0.29804499824999997 0.75
 Si4 Si 0.48214500025 0.29804499824999997 1.0
 Si4 Si 0.26785499975 0.45195500175000003 0.75
 Si4 Si 0.26785499975 0.45195500175000003 1.0
 Si4 Si 0.39285499975 0.42304499824999997 0.75
 Si4 Si 0.39285499975 0.42304499824999997 1.0
 Si4 Si 0.35714500025 0.32695500175000003 0.75
 Si4 Si 0.35714500025 0.32695500175000003 1.0
 Si4 Si 0.35714500025 0.42304499824999997 0.75
 Si4 Si 0.35714500025 0.42304499824999997 1.0
 Si4 Si 0.39285499975 0.32695500175000003 0.75
 Si4 Si 0.39285499975 0.32695500175000003 1.0
 O1 O 0.29870250075 0.27753500075 0.82191000125
 O1 O 0.45129749925 0.47246499924999996 0.92808999875
 O1 O 0.45129749925 0.47246499924999996 0.82191000125
 O1 O 0.29870250075 0.27753500075 0.92808999875
 O1 O 0.45129749925 0.27753500075 0.92808999875
 O1 O 0.29870250075 0.47246499924999996 0.82191000125
 O1 O 0.29870250075 0.47246499924999996 0.92808999875
 O1 O 0.45129749925 0.27753500075 0.82191000125
 O1 O 0.42370250075 0.40253500075000004 0.82191000125
 O1 O 0.32629749925 0.34746499925 0.92808999875
 O1 O 0.32629749925 0.34746499925 0.82191000125
 O1 O 0.42370250075 0.40253500075000004 0.92808999875
 O1 O 0.32629749925 0.40253500075000004 0.92808999875
 O1 O 0.42370250075 0.34746499925 0.82191000125
 O1 O 0.42370250075 0.34746499925 0.92808999875
 O1 O 0.32629749925 0.40253500075000004 0.82191000125
 O2 O 0.3273824975 0.28536500025 0.7932275012500001
 O2 O 0.42261750249999996 0.46463499975 0.95677249875
 O2 O 0.42261750249999996 0.46463499975 0.7932275012500001
 O2 O 0.3273824975 0.28536500025 0.95677249875
 O2 O 0.42261750249999996 0.28536500025 0.95677249875
 O2 O 0.3273824975 0.46463499975 0.7932275012500001
 O2 O 0.3273824975 0.46463499975 0.95677249875
 O2 O 0.42261750249999996 0.28536500025 0.7932275012500001
 O2 O 0.45238249750000004 0.41036500025 0.7932275012500001
 O2 O 0.2976175025 0.33963499975 0.95677249875
 O2 O 0.2976175025 0.33963499975 0.7932275012500001
 O2 O 0.45238249750000004 0.41036500025 0.95677249875
 O2 O 0.2976175025 0.41036500025 0.95677249875
 O2 O 0.45238249750000004 0.33963499975 0.7932275012500001
 O2 O 0.45238249750000004 0.33963499975 0.95677249875
 O2 O 0.2976175025 0.41036500025 0.7932275012500001
 O3 O 0.31933250275 0.25 0.80936750025
 O3 O 0.31933250275 0.5 0.80936750025
 O3 O 0.43066749725 0.25 0.94063249975
 O3 O 0.43066749725 0.5 0.94063249975
 O3 O 0.43066749725 0.25 0.80936750025
 O3 O 0.43066749725 0.5 0.80936750025
 O3 O 0.31933250275 0.25 0.94063249975
 O3 O 0.31933250275 0.5 0.94063249975
 O3 O 0.44433250275 0.375 0.80936750025
 O3 O 0.30566749725 0.375 0.94063249975
 O3 O 0.30566749725 0.375 0.80936750025
 O3 O 0.44433250275 0.375 0.94063249975
 O4 O 0.32323499775 0.27379499925 0.875
 O4 O 0.42676500225 0.47620500075 0.875
 O4 O 0.42676500225 0.27379499925 0.875
 O4 O 0.32323499775 0.47620500075 0.875
 O4 O 0.44823499775 0.39879499925 0.875
 O4 O 0.30176500225 0.35120500075 0.875
 O4 O 0.30176500225 0.39879499925 0.875
 O4 O 0.44823499775 0.35120500075 0.875
 O5 O 0.2781475 0.25 0.8090699985
 O5 O 0.2781475 0.5 0.8090699985
 O5 O 0.4718525 0.25 0.9409300015
 O5 O 0.4718525 0.5 0.9409300015
 O5 O 0.4718525 0.25 0.8090699985
 O5 O 0.4718525 0.5 0.8090699985
 O5 O 0.2781475 0.25 0.9409300015
 O5 O 0.2781475 0.5 0.9409300015
 O5 O 0.4031475 0.375 0.8090699985
 O5 O 0.3468525 0.375 0.9409300015
 O5 O 0.3468525 0.375 0.8090699985
 O5 O 0.4031475 0.375 0.9409300015
 O6 O 0.27415999950000003 0.2736249995 0.875
 O6 O 0.47584000049999997 0.47637500050000003 0.875
 O6 O 0.47584000049999997 0.2736249995 0.875
 O6 O 0.27415999950000003 0.47637500050000003 0.875
 O6 O 0.39915999950000003 0.39862499949999997 0.875
 O6 O 0.35084000049999997 0.35137500050000003 0.875
 O6 O 0.35084000049999997 0.39862499949999997 0.875
 O6 O 0.39915999950000003 0.35137500050000003 0.875
 O7 O 0.2698449995 0.28517999875 0.79336500175
 O7 O 0.48015500050000004 0.46482000125 0.95663499825
 O7 O 0.48015500050000004 0.46482000125 0.79336500175
 O7 O 0.2698449995 0.28517999875 0.95663499825
 O7 O 0.48015500050000004 0.28517999875 0.95663499825
 O7 O 0.2698449995 0.46482000125 0.79336500175
 O7 O 0.2698449995 0.46482000125 0.95663499825
 O7 O 0.48015500050000004 0.28517999875 0.79336500175
 O7 O 0.39484499949999996 0.41017999875 0.79336500175
 O7 O 0.3551550005 0.33982000125 0.95663499825
 O7 O 0.3551550005 0.33982000125 0.79336500175
 O7 O 0.39484499949999996 0.41017999875 0.95663499825
 O7 O 0.3551550005 0.41017999875 0.95663499825
 O7 O 0.39484499949999996 0.33982000125 0.79336500175
 O7 O 0.39484499949999996 0.33982000125 0.95663499825
 O7 O 0.3551550005 0.41017999875 0.79336500175
 O8 O 0.3125 0.3125 0.75
 O8 O 0.3125 0.3125 1.0
 O8 O 0.4375 0.4375 0.75
 O8 O 0.4375 0.4375 1.0
 O8 O 0.4375 0.3125 0.75
 O8 O 0.4375 0.3125 1.0
 O8 O 0.3125 0.4375 0.75
 O8 O 0.3125 0.4375 1.0
 O9 O 0.28091249975 0.31469249725 0.75
 O9 O 0.28091249975 0.31469249725 1.0
 O9 O 0.46908750025 0.43530750274999996 0.75
 O9 O 0.46908750025 0.43530750274999996 1.0
 O9 O 0.46908750025 0.31469249725 0.75
 O9 O 0.46908750025 0.31469249725 1.0
 O9 O 0.28091249975 0.43530750274999996 0.75
 O9 O 0.28091249975 0.43530750274999996 1.0
 O9 O 0.40591249975 0.43969249725000004 0.75
 O9 O 0.40591249975 0.43969249725000004 1.0
 O9 O 0.34408750025 0.31030750275 0.75
 O9 O 0.34408750025 0.31030750275 1.0
 O9 O 0.34408750025 0.43969249725000004 0.75
 O9 O 0.34408750025 0.43969249725000004 1.0
 O9 O 0.40591249975 0.31030750275 0.75
 O9 O 0.40591249975 0.31030750275 1.0
 O10 O 0.25 0.30657500025 0.75
 O10 O 0.25 0.30657500025 1.0
 O10 O 0.5 0.30657500025 0.75
 O10 O 0.5 0.30657500025 1.0
 O10 O 0.25 0.44342499975 0.75
 O10 O 0.25 0.44342499975 1.0
 O10 O 0.5 0.44342499975 0.75
 O10 O 0.5 0.44342499975 1.0
 O10 O 0.375 0.43157500025 0.75
 O10 O 0.375 0.43157500025 1.0
 O10 O 0.375 0.31842499975 0.75
 O10 O 0.375 0.31842499975 1.0
 O2 O 0.2976175025 0.33963499975 0.70677249875
 O2 O 0.2976175025 0.33963499975 1.04322750125
 O2 O 0.45238249750000004 0.41036500025 0.70677249875
 O2 O 0.45238249750000004 0.41036500025 1.04322750125
 O2 O 0.45238249750000004 0.33963499975 0.70677249875
 O2 O 0.45238249750000004 0.33963499975 1.04322750125
 O2 O 0.2976175025 0.41036500025 0.70677249875
 O2 O 0.2976175025 0.41036500025 1.04322750125
 O2 O 0.42261750249999996 0.46463499975 0.70677249875
 O2 O 0.42261750249999996 0.46463499975 1.04322750125
 O2 O 0.3273824975 0.28536500025 0.70677249875
 O2 O 0.3273824975 0.28536500025 1.04322750125
 O2 O 0.3273824975 0.46463499975 0.70677249875
 O2 O 0.3273824975 0.46463499975 1.04322750125
 O2 O 0.42261750249999996 0.28536500025 0.70677249875
 O2 O 0.42261750249999996 0.28536500025 1.04322750125
 O7 O 0.2698449995 0.28517999875 0.70663499825
 O7 O 0.2698449995 0.28517999875 1.04336500175
 O7 O 0.48015500050000004 0.46482000125 0.70663499825
 O7 O 0.48015500050000004 0.46482000125 1.04336500175
 O7 O 0.48015500050000004 0.28517999875 0.70663499825
 O7 O 0.48015500050000004 0.28517999875 1.04336500175
 O7 O 0.2698449995 0.46482000125 0.70663499825
 O7 O 0.2698449995 0.46482000125 1.04336500175
 O7 O 0.39484499949999996 0.41017999875 0.70663499825
 O7 O 0.39484499949999996 0.41017999875 1.04336500175
 O7 O 0.3551550005 0.33982000125 0.70663499825
 O7 O 0.3551550005 0.33982000125 1.04336500175
 O7 O 0.3551550005 0.41017999875 0.70663499825
 O7 O 0.3551550005 0.41017999875 1.04336500175
 O7 O 0.39484499949999996 0.33982000125 0.70663499825
 O7 O 0.39484499949999996 0.33982000125 1.04336500175
 Si1 Si 0.5672350005 0.27160999925 0.8248350025
 Si1 Si 0.6827649995 0.47839000075 0.9251649975
 Si1 Si 0.6827649995 0.47839000075 0.8248350025
 Si1 Si 0.5672350005 0.27160999925 0.9251649975
 Si1 Si 0.6827649995 0.27160999925 0.9251649975
 Si1 Si 0.5672350005 0.47839000075 0.8248350025
 Si1 Si 0.5672350005 0.47839000075 0.9251649975
 Si1 Si 0.6827649995 0.27160999925 0.8248350025
 Si1 Si 0.6922350005 0.39660999925 0.8248350025
 Si1 Si 0.5577649995 0.35339000075 0.9251649975
 Si1 Si 0.5577649995 0.35339000075 0.8248350025
 Si1 Si 0.6922350005 0.39660999925 0.9251649975
 Si1 Si 0.5577649995 0.39660999925 0.9251649975
 Si1 Si 0.6922350005 0.35339000075 0.8248350025
 Si1 Si 0.6922350005 0.35339000075 0.9251649975
 Si1 Si 0.5577649995 0.39660999925 0.8248350025
 Si2 Si 0.5301799997500001 0.27157500025 0.824832499
 Si2 Si 0.71982000025 0.47842499974999997 0.925167501
 Si2 Si 0.71982000025 0.47842499974999997 0.824832499
 Si2 Si 0.5301799997500001 0.27157500025 0.925167501
 Si2 Si 0.71982000025 0.27157500025 0.925167501
 Si2 Si 0.5301799997500001 0.47842499974999997 0.824832499
 Si2 Si 0.5301799997500001 0.47842499974999997 0.925167501
 Si2 Si 0.71982000025 0.27157500025 0.824832499
 Si2 Si 0.65517999975 0.39657500025000003 0.824832499
 Si2 Si 0.5948200002499999 0.35342499974999997 0.925167501
 Si2 Si 0.5948200002499999 0.35342499974999997 0.824832499
 Si2 Si 0.65517999975 0.39657500025000003 0.925167501
 Si2 Si 0.5948200002499999 0.39657500025000003 0.925167501
 Si2 Si 0.65517999975 0.35342499974999997 0.824832499
 Si2 Si 0.65517999975 0.35342499974999997 0.925167501
 Si2 Si 0.5948200002499999 0.39657500025000003 0.824832499
 Si3 Si 0.547362499 0.32644499849999997 0.75
 Si3 Si 0.547362499 0.32644499849999997 1.0
 Si3 Si 0.702637501 0.42355500150000003 0.75
 Si3 Si 0.702637501 0.42355500150000003 1.0
 Si3 Si 0.702637501 0.32644499849999997 0.75
 Si3 Si 0.702637501 0.32644499849999997 1.0
 Si3 Si 0.547362499 0.42355500150000003 0.75
 Si3 Si 0.547362499 0.42355500150000003 1.0
 Si3 Si 0.672362499 0.45144499849999997 0.75
 Si3 Si 0.672362499 0.45144499849999997 1.0
 Si3 Si 0.577637501 0.29855500150000003 0.75
 Si3 Si 0.577637501 0.29855500150000003 1.0
 Si3 Si 0.577637501 0.45144499849999997 0.75
 Si3 Si 0.577637501 0.45144499849999997 1.0
 Si3 Si 0.672362499 0.29855500150000003 0.75
 Si3 Si 0.672362499 0.29855500150000003 1.0
 Si4 Si 0.5178549997499999 0.29804499824999997 0.75
 Si4 Si 0.5178549997499999 0.29804499824999997 1.0
 Si4 Si 0.7321450002500001 0.45195500175000003 0.75
 Si4 Si 0.7321450002500001 0.45195500175000003 1.0
 Si4 Si 0.7321450002500001 0.29804499824999997 0.75
 Si4 Si 0.7321450002500001 0.29804499824999997 1.0
 Si4 Si 0.5178549997499999 0.45195500175000003 0.75
 Si4 Si 0.5178549997499999 0.45195500175000003 1.0
 Si4 Si 0.6428549997499999 0.42304499824999997 0.75
 Si4 Si 0.6428549997499999 0.42304499824999997 1.0
 Si4 Si 0.6071450002500001 0.32695500175000003 0.75
 Si4 Si 0.6071450002500001 0.32695500175000003 1.0
 Si4 Si 0.6071450002500001 0.42304499824999997 0.75
 Si4 Si 0.6071450002500001 0.42304499824999997 1.0
 Si4 Si 0.6428549997499999 0.32695500175000003 0.75
 Si4 Si 0.6428549997499999 0.32695500175000003 1.0
 O1 O 0.5487025007499999 0.27753500075 0.82191000125
 O1 O 0.7012974992500001 0.47246499924999996 0.92808999875
 O1 O 0.7012974992500001 0.47246499924999996 0.82191000125
 O1 O 0.5487025007499999 0.27753500075 0.92808999875
 O1 O 0.7012974992500001 0.27753500075 0.92808999875
 O1 O 0.5487025007499999 0.47246499924999996 0.82191000125
 O1 O 0.5487025007499999 0.47246499924999996 0.92808999875
 O1 O 0.7012974992500001 0.27753500075 0.82191000125
 O1 O 0.6737025007499999 0.40253500075000004 0.82191000125
 O1 O 0.5762974992500001 0.34746499925 0.92808999875
 O1 O 0.5762974992500001 0.34746499925 0.82191000125
 O1 O 0.6737025007499999 0.40253500075000004 0.92808999875
 O1 O 0.5762974992500001 0.40253500075000004 0.92808999875
 O1 O 0.6737025007499999 0.34746499925 0.82191000125
 O1 O 0.6737025007499999 0.34746499925 0.92808999875
 O1 O 0.5762974992500001 0.40253500075000004 0.82191000125
 O2 O 0.5773824974999999 0.28536500025 0.7932275012500001
 O2 O 0.6726175025 0.46463499975 0.95677249875
 O2 O 0.6726175025 0.46463499975 0.7932275012500001
 O2 O 0.5773824974999999 0.28536500025 0.95677249875
 O2 O 0.6726175025 0.28536500025 0.95677249875
 O2 O 0.5773824974999999 0.46463499975 0.7932275012500001
 O2 O 0.5773824974999999 0.46463499975 0.95677249875
 O2 O 0.6726175025 0.28536500025 0.7932275012500001
 O2 O 0.7023824975 0.41036500025 0.7932275012500001
 O2 O 0.5476175025000001 0.33963499975 0.95677249875
 O2 O 0.5476175025000001 0.33963499975 0.7932275012500001
 O2 O 0.7023824975 0.41036500025 0.95677249875
 O2 O 0.5476175025000001 0.41036500025 0.95677249875
 O2 O 0.7023824975 0.33963499975 0.7932275012500001
 O2 O 0.7023824975 0.33963499975 0.95677249875
 O2 O 0.5476175025000001 0.41036500025 0.7932275012500001
 O3 O 0.56933250275 0.25 0.80936750025
 O3 O 0.56933250275 0.5 0.80936750025
 O3 O 0.68066749725 0.25 0.94063249975
 O3 O 0.68066749725 0.5 0.94063249975
 O3 O 0.68066749725 0.25 0.80936750025
 O3 O 0.68066749725 0.5 0.80936750025
 O3 O 0.56933250275 0.25 0.94063249975
 O3 O 0.56933250275 0.5 0.94063249975
 O3 O 0.69433250275 0.375 0.80936750025
 O3 O 0.55566749725 0.375 0.94063249975
 O3 O 0.55566749725 0.375 0.80936750025
 O3 O 0.69433250275 0.375 0.94063249975
 O4 O 0.57323499775 0.27379499925 0.875
 O4 O 0.67676500225 0.47620500075 0.875
 O4 O 0.67676500225 0.27379499925 0.875
 O4 O 0.57323499775 0.47620500075 0.875
 O4 O 0.69823499775 0.39879499925 0.875
 O4 O 0.55176500225 0.35120500075 0.875
 O4 O 0.55176500225 0.39879499925 0.875
 O4 O 0.69823499775 0.35120500075 0.875
 O5 O 0.5281475 0.25 0.8090699985
 O5 O 0.5281475 0.5 0.8090699985
 O5 O 0.7218525 0.25 0.9409300015
 O5 O 0.7218525 0.5 0.9409300015
 O5 O 0.7218525 0.25 0.8090699985
 O5 O 0.7218525 0.5 0.8090699985
 O5 O 0.5281475 0.25 0.9409300015
 O5 O 0.5281475 0.5 0.9409300015
 O5 O 0.6531475 0.375 0.8090699985
 O5 O 0.5968525 0.375 0.9409300015
 O5 O 0.5968525 0.375 0.8090699985
 O5 O 0.6531475 0.375 0.9409300015
 O6 O 0.5241599995 0.2736249995 0.875
 O6 O 0.7258400005 0.47637500050000003 0.875
 O6 O 0.7258400005 0.2736249995 0.875
 O6 O 0.5241599995 0.47637500050000003 0.875
 O6 O 0.6491599995 0.39862499949999997 0.875
 O6 O 0.6008400005 0.35137500050000003 0.875
 O6 O 0.6008400005 0.39862499949999997 0.875
 O6 O 0.6491599995 0.35137500050000003 0.875
 O7 O 0.5198449995000001 0.28517999875 0.79336500175
 O7 O 0.7301550005 0.46482000125 0.95663499825
 O7 O 0.7301550005 0.46482000125 0.79336500175
 O7 O 0.5198449995000001 0.28517999875 0.95663499825
 O7 O 0.7301550005 0.28517999875 0.95663499825
 O7 O 0.5198449995000001 0.46482000125 0.79336500175
 O7 O 0.5198449995000001 0.46482000125 0.95663499825
 O7 O 0.7301550005 0.28517999875 0.79336500175
 O7 O 0.6448449995 0.41017999875 0.79336500175
 O7 O 0.6051550004999999 0.33982000125 0.95663499825
 O7 O 0.6051550004999999 0.33982000125 0.79336500175
 O7 O 0.6448449995 0.41017999875 0.95663499825
 O7 O 0.6051550004999999 0.41017999875 0.95663499825
 O7 O 0.6448449995 0.33982000125 0.79336500175
 O7 O 0.6448449995 0.33982000125 0.95663499825
 O7 O 0.6051550004999999 0.41017999875 0.79336500175
 O8 O 0.5625 0.3125 0.75
 O8 O 0.5625 0.3125 1.0
 O8 O 0.6875 0.4375 0.75
 O8 O 0.6875 0.4375 1.0
 O8 O 0.6875 0.3125 0.75
 O8 O 0.6875 0.3125 1.0
 O8 O 0.5625 0.4375 0.75
 O8 O 0.5625 0.4375 1.0
 O9 O 0.53091249975 0.31469249725 0.75
 O9 O 0.53091249975 0.31469249725 1.0
 O9 O 0.71908750025 0.43530750274999996 0.75
 O9 O 0.71908750025 0.43530750274999996 1.0
 O9 O 0.71908750025 0.31469249725 0.75
 O9 O 0.71908750025 0.31469249725 1.0
 O9 O 0.53091249975 0.43530750274999996 0.75
 O9 O 0.53091249975 0.43530750274999996 1.0
 O9 O 0.65591249975 0.43969249725000004 0.75
 O9 O 0.65591249975 0.43969249725000004 1.0
 O9 O 0.59408750025 0.31030750275 0.75
 O9 O 0.59408750025 0.31030750275 1.0
 O9 O 0.59408750025 0.43969249725000004 0.75
 O9 O 0.59408750025 0.43969249725000004 1.0
 O9 O 0.65591249975 0.31030750275 0.75
 O9 O 0.65591249975 0.31030750275 1.0
 O10 O 0.5 0.30657500025 0.75
 O10 O 0.5 0.30657500025 1.0
 O10 O 0.75 0.30657500025 0.75
 O10 O 0.75 0.30657500025 1.0
 O10 O 0.5 0.44342499975 0.75
 O10 O 0.5 0.44342499975 1.0
 O10 O 0.75 0.44342499975 0.75
 O10 O 0.75 0.44342499975 1.0
 O10 O 0.625 0.43157500025 0.75
 O10 O 0.625 0.43157500025 1.0
 O10 O 0.625 0.31842499975 0.75
 O10 O 0.625 0.31842499975 1.0
 O2 O 0.5476175025000001 0.33963499975 0.70677249875
 O2 O 0.5476175025000001 0.33963499975 1.04322750125
 O2 O 0.7023824975 0.41036500025 0.70677249875
 O2 O 0.7023824975 0.41036500025 1.04322750125
 O2 O 0.7023824975 0.33963499975 0.70677249875
 O2 O 0.7023824975 0.33963499975 1.04322750125
 O2 O 0.5476175025000001 0.41036500025 0.70677249875
 O2 O 0.5476175025000001 0.41036500025 1.04322750125
 O2 O 0.6726175025 0.46463499975 0.70677249875
 O2 O 0.6726175025 0.46463499975 1.04322750125
 O2 O 0.5773824974999999 0.28536500025 0.70677249875
 O2 O 0.5773824974999999 0.28536500025 1.04322750125
 O2 O 0.5773824974999999 0.46463499975 0.70677249875
 O2 O 0.5773824974999999 0.46463499975 1.04322750125
 O2 O 0.6726175025 0.28536500025 0.70677249875
 O2 O 0.6726175025 0.28536500025 1.04322750125
 O7 O 0.5198449995000001 0.28517999875 0.70663499825
 O7 O 0.5198449995000001 0.28517999875 1.04336500175
 O7 O 0.7301550005 0.46482000125 0.70663499825
 O7 O 0.7301550005 0.46482000125 1.04336500175
 O7 O 0.7301550005 0.28517999875 0.70663499825
 O7 O 0.7301550005 0.28517999875 1.04336500175
 O7 O 0.5198449995000001 0.46482000125 0.70663499825
 O7 O 0.5198449995000001 0.46482000125 1.04336500175
 O7 O 0.6448449995 0.41017999875 0.70663499825
 O7 O 0.6448449995 0.41017999875 1.04336500175
 O7 O 0.6051550004999999 0.33982000125 0.70663499825
 O7 O 0.6051550004999999 0.33982000125 1.04336500175
 O7 O 0.6051550004999999 0.41017999875 0.70663499825
 O7 O 0.6051550004999999 0.41017999875 1.04336500175
 O7 O 0.6448449995 0.33982000125 0.70663499825
 O7 O 0.6448449995 0.33982000125 1.04336500175
 Si1 Si 0.8172350005 0.27160999925 0.8248350025
 Si1 Si 0.9327649995 0.47839000075 0.9251649975
 Si1 Si 0.9327649995 0.47839000075 0.8248350025
 Si1 Si 0.8172350005 0.27160999925 0.9251649975
 Si1 Si 0.9327649995 0.27160999925 0.9251649975
 Si1 Si 0.8172350005 0.47839000075 0.8248350025
 Si1 Si 0.8172350005 0.47839000075 0.9251649975
 Si1 Si 0.9327649995 0.27160999925 0.8248350025
 Si1 Si 0.9422350005 0.39660999925 0.8248350025
 Si1 Si 0.8077649995 0.35339000075 0.9251649975
 Si1 Si 0.8077649995 0.35339000075 0.8248350025
 Si1 Si 0.9422350005 0.39660999925 0.9251649975
 Si1 Si 0.8077649995 0.39660999925 0.9251649975
 Si1 Si 0.9422350005 0.35339000075 0.8248350025
 Si1 Si 0.9422350005 0.35339000075 0.9251649975
 Si1 Si 0.8077649995 0.39660999925 0.8248350025
 Si2 Si 0.7801799997500001 0.27157500025 0.824832499
 Si2 Si 0.96982000025 0.47842499974999997 0.925167501
 Si2 Si 0.96982000025 0.47842499974999997 0.824832499
 Si2 Si 0.7801799997500001 0.27157500025 0.925167501
 Si2 Si 0.96982000025 0.27157500025 0.925167501
 Si2 Si 0.7801799997500001 0.47842499974999997 0.824832499
 Si2 Si 0.7801799997500001 0.47842499974999997 0.925167501
 Si2 Si 0.96982000025 0.27157500025 0.824832499
 Si2 Si 0.90517999975 0.39657500025000003 0.824832499
 Si2 Si 0.8448200002499999 0.35342499974999997 0.925167501
 Si2 Si 0.8448200002499999 0.35342499974999997 0.824832499
 Si2 Si 0.90517999975 0.39657500025000003 0.925167501
 Si2 Si 0.8448200002499999 0.39657500025000003 0.925167501
 Si2 Si 0.90517999975 0.35342499974999997 0.824832499
 Si2 Si 0.90517999975 0.35342499974999997 0.925167501
 Si2 Si 0.8448200002499999 0.39657500025000003 0.824832499
 Si3 Si 0.797362499 0.32644499849999997 0.75
 Si3 Si 0.797362499 0.32644499849999997 1.0
 Si3 Si 0.952637501 0.42355500150000003 0.75
 Si3 Si 0.952637501 0.42355500150000003 1.0
 Si3 Si 0.952637501 0.32644499849999997 0.75
 Si3 Si 0.952637501 0.32644499849999997 1.0
 Si3 Si 0.797362499 0.42355500150000003 0.75
 Si3 Si 0.797362499 0.42355500150000003 1.0
 Si3 Si 0.922362499 0.45144499849999997 0.75
 Si3 Si 0.922362499 0.45144499849999997 1.0
 Si3 Si 0.827637501 0.29855500150000003 0.75
 Si3 Si 0.827637501 0.29855500150000003 1.0
 Si3 Si 0.827637501 0.45144499849999997 0.75
 Si3 Si 0.827637501 0.45144499849999997 1.0
 Si3 Si 0.922362499 0.29855500150000003 0.75
 Si3 Si 0.922362499 0.29855500150000003 1.0
 Si4 Si 0.7678549997499999 0.29804499824999997 0.75
 Si4 Si 0.7678549997499999 0.29804499824999997 1.0
 Si4 Si 0.9821450002500001 0.45195500175000003 0.75
 Si4 Si 0.9821450002500001 0.45195500175000003 1.0
 Si4 Si 0.9821450002500001 0.29804499824999997 0.75
 Si4 Si 0.9821450002500001 0.29804499824999997 1.0
 Si4 Si 0.7678549997499999 0.45195500175000003 0.75
 Si4 Si 0.7678549997499999 0.45195500175000003 1.0
 Si4 Si 0.8928549997499999 0.42304499824999997 0.75
 Si4 Si 0.8928549997499999 0.42304499824999997 1.0
 Si4 Si 0.8571450002500001 0.32695500175000003 0.75
 Si4 Si 0.8571450002500001 0.32695500175000003 1.0
 Si4 Si 0.8571450002500001 0.42304499824999997 0.75
 Si4 Si 0.8571450002500001 0.42304499824999997 1.0
 Si4 Si 0.8928549997499999 0.32695500175000003 0.75
 Si4 Si 0.8928549997499999 0.32695500175000003 1.0
 O1 O 0.7987025007499999 0.27753500075 0.82191000125
 O1 O 0.9512974992500001 0.47246499924999996 0.92808999875
 O1 O 0.9512974992500001 0.47246499924999996 0.82191000125
 O1 O 0.7987025007499999 0.27753500075 0.92808999875
 O1 O 0.9512974992500001 0.27753500075 0.92808999875
 O1 O 0.7987025007499999 0.47246499924999996 0.82191000125
 O1 O 0.7987025007499999 0.47246499924999996 0.92808999875
 O1 O 0.9512974992500001 0.27753500075 0.82191000125
 O1 O 0.9237025007499999 0.40253500075000004 0.82191000125
 O1 O 0.8262974992500001 0.34746499925 0.92808999875
 O1 O 0.8262974992500001 0.34746499925 0.82191000125
 O1 O 0.9237025007499999 0.40253500075000004 0.92808999875
 O1 O 0.8262974992500001 0.40253500075000004 0.92808999875
 O1 O 0.9237025007499999 0.34746499925 0.82191000125
 O1 O 0.9237025007499999 0.34746499925 0.92808999875
 O1 O 0.8262974992500001 0.40253500075000004 0.82191000125
 O2 O 0.8273824974999999 0.28536500025 0.7932275012500001
 O2 O 0.9226175025 0.46463499975 0.95677249875
 O2 O 0.9226175025 0.46463499975 0.7932275012500001
 O2 O 0.8273824974999999 0.28536500025 0.95677249875
 O2 O 0.9226175025 0.28536500025 0.95677249875
 O2 O 0.8273824974999999 0.46463499975 0.7932275012500001
 O2 O 0.8273824974999999 0.46463499975 0.95677249875
 O2 O 0.9226175025 0.28536500025 0.7932275012500001
 O2 O 0.9523824975 0.41036500025 0.7932275012500001
 O2 O 0.7976175025000001 0.33963499975 0.95677249875
 O2 O 0.7976175025000001 0.33963499975 0.7932275012500001
 O2 O 0.9523824975 0.41036500025 0.95677249875
 O2 O 0.7976175025000001 0.41036500025 0.95677249875
 O2 O 0.9523824975 0.33963499975 0.7932275012500001
 O2 O 0.9523824975 0.33963499975 0.95677249875
 O2 O 0.7976175025000001 0.41036500025 0.7932275012500001
 O3 O 0.81933250275 0.25 0.80936750025
 O3 O 0.81933250275 0.5 0.80936750025
 O3 O 0.93066749725 0.25 0.94063249975
 O3 O 0.93066749725 0.5 0.94063249975
 O3 O 0.93066749725 0.25 0.80936750025
 O3 O 0.93066749725 0.5 0.80936750025
 O3 O 0.81933250275 0.25 0.94063249975
 O3 O 0.81933250275 0.5 0.94063249975
 O3 O 0.94433250275 0.375 0.80936750025
 O3 O 0.80566749725 0.375 0.94063249975
 O3 O 0.80566749725 0.375 0.80936750025
 O3 O 0.94433250275 0.375 0.94063249975
 O4 O 0.82323499775 0.27379499925 0.875
 O4 O 0.92676500225 0.47620500075 0.875
 O4 O 0.92676500225 0.27379499925 0.875
 O4 O 0.82323499775 0.47620500075 0.875
 O4 O 0.94823499775 0.39879499925 0.875
 O4 O 0.80176500225 0.35120500075 0.875
 O4 O 0.80176500225 0.39879499925 0.875
 O4 O 0.94823499775 0.35120500075 0.875
 O5 O 0.7781475 0.25 0.8090699985
 O5 O 0.7781475 0.5 0.8090699985
 O5 O 0.9718525 0.25 0.9409300015
 O5 O 0.9718525 0.5 0.9409300015
 O5 O 0.9718525 0.25 0.8090699985
 O5 O 0.9718525 0.5 0.8090699985
 O5 O 0.7781475 0.25 0.9409300015
 O5 O 0.7781475 0.5 0.9409300015
 O5 O 0.9031475 0.375 0.8090699985
 O5 O 0.8468525 0.375 0.9409300015
 O5 O 0.8468525 0.375 0.8090699985
 O5 O 0.9031475 0.375 0.9409300015
 O6 O 0.7741599995 0.2736249995 0.875
 O6 O 0.9758400005 0.47637500050000003 0.875
 O6 O 0.9758400005 0.2736249995 0.875
 O6 O 0.7741599995 0.47637500050000003 0.875
 O6 O 0.8991599995 0.39862499949999997 0.875
 O6 O 0.8508400005 0.35137500050000003 0.875
 O6 O 0.8508400005 0.39862499949999997 0.875
 O6 O 0.8991599995 0.35137500050000003 0.875
 O7 O 0.7698449995000001 0.28517999875 0.79336500175
 O7 O 0.9801550005 0.46482000125 0.95663499825
 O7 O 0.9801550005 0.46482000125 0.79336500175
 O7 O 0.7698449995000001 0.28517999875 0.95663499825
 O7 O 0.9801550005 0.28517999875 0.95663499825
 O7 O 0.7698449995000001 0.46482000125 0.79336500175
 O7 O 0.7698449995000001 0.46482000125 0.95663499825
 O7 O 0.9801550005 0.28517999875 0.79336500175
 O7 O 0.8948449995 0.41017999875 0.79336500175
 O7 O 0.8551550004999999 0.33982000125 0.95663499825
 O7 O 0.8551550004999999 0.33982000125 0.79336500175
 O7 O 0.8948449995 0.41017999875 0.95663499825
 O7 O 0.8551550004999999 0.41017999875 0.95663499825
 O7 O 0.8948449995 0.33982000125 0.79336500175
 O7 O 0.8948449995 0.33982000125 0.95663499825
 O7 O 0.8551550004999999 0.41017999875 0.79336500175
 O8 O 0.8125 0.3125 0.75
 O8 O 0.8125 0.3125 1.0
 O8 O 0.9375 0.4375 0.75
 O8 O 0.9375 0.4375 1.0
 O8 O 0.9375 0.3125 0.75
 O8 O 0.9375 0.3125 1.0
 O8 O 0.8125 0.4375 0.75
 O8 O 0.8125 0.4375 1.0
 O9 O 0.78091249975 0.31469249725 0.75
 O9 O 0.78091249975 0.31469249725 1.0
 O9 O 0.96908750025 0.43530750274999996 0.75
 O9 O 0.96908750025 0.43530750274999996 1.0
 O9 O 0.96908750025 0.31469249725 0.75
 O9 O 0.96908750025 0.31469249725 1.0
 O9 O 0.78091249975 0.43530750274999996 0.75
 O9 O 0.78091249975 0.43530750274999996 1.0
 O9 O 0.90591249975 0.43969249725000004 0.75
 O9 O 0.90591249975 0.43969249725000004 1.0
 O9 O 0.84408750025 0.31030750275 0.75
 O9 O 0.84408750025 0.31030750275 1.0
 O9 O 0.84408750025 0.43969249725000004 0.75
 O9 O 0.84408750025 0.43969249725000004 1.0
 O9 O 0.90591249975 0.31030750275 0.75
 O9 O 0.90591249975 0.31030750275 1.0
 O10 O 0.75 0.30657500025 0.75
 O10 O 0.75 0.30657500025 1.0
 O10 O 1.0 0.30657500025 0.75
 O10 O 1.0 0.30657500025 1.0
 O10 O 0.75 0.44342499975 0.75
 O10 O 0.75 0.44342499975 1.0
 O10 O 1.0 0.44342499975 0.75
 O10 O 1.0 0.44342499975 1.0
 O10 O 0.875 0.43157500025 0.75
 O10 O 0.875 0.43157500025 1.0
 O10 O 0.875 0.31842499975 0.75
 O10 O 0.875 0.31842499975 1.0
 O2 O 0.7976175025000001 0.33963499975 0.70677249875
 O2 O 0.7976175025000001 0.33963499975 1.04322750125
 O2 O 0.9523824975 0.41036500025 0.70677249875
 O2 O 0.9523824975 0.41036500025 1.04322750125
 O2 O 0.9523824975 0.33963499975 0.70677249875
 O2 O 0.9523824975 0.33963499975 1.04322750125
 O2 O 0.7976175025000001 0.41036500025 0.70677249875
 O2 O 0.7976175025000001 0.41036500025 1.04322750125
 O2 O 0.9226175025 0.46463499975 0.70677249875
 O2 O 0.9226175025 0.46463499975 1.04322750125
 O2 O 0.8273824974999999 0.28536500025 0.70677249875
 O2 O 0.8273824974999999 0.28536500025 1.04322750125
 O2 O 0.8273824974999999 0.46463499975 0.70677249875
 O2 O 0.8273824974999999 0.46463499975 1.04322750125
 O2 O 0.9226175025 0.28536500025 0.70677249875
 O2 O 0.9226175025 0.28536500025 1.04322750125
 O7 O 0.7698449995000001 0.28517999875 0.70663499825
 O7 O 0.7698449995000001 0.28517999875 1.04336500175
 O7 O 0.9801550005 0.46482000125 0.70663499825
 O7 O 0.9801550005 0.46482000125 1.04336500175
 O7 O 0.9801550005 0.28517999875 0.70663499825
 O7 O 0.9801550005 0.28517999875 1.04336500175
 O7 O 0.7698449995000001 0.46482000125 0.70663499825
 O7 O 0.7698449995000001 0.46482000125 1.04336500175
 O7 O 0.8948449995 0.41017999875 0.70663499825
 O7 O 0.8948449995 0.41017999875 1.04336500175
 O7 O 0.8551550004999999 0.33982000125 0.70663499825
 O7 O 0.8551550004999999 0.33982000125 1.04336500175
 O7 O 0.8551550004999999 0.41017999875 0.70663499825
 O7 O 0.8551550004999999 0.41017999875 1.04336500175
 O7 O 0.8948449995 0.33982000125 0.70663499825
 O7 O 0.8948449995 0.33982000125 1.04336500175
 Si1 Si 0.0672350005 0.5216099992500001 0.8248350025
 Si1 Si 0.1827649995 0.7283900007499999 0.9251649975
 Si1 Si 0.1827649995 0.7283900007499999 0.8248350025
 Si1 Si 0.0672350005 0.5216099992500001 0.9251649975
 Si1 Si 0.1827649995 0.5216099992500001 0.9251649975
 Si1 Si 0.0672350005 0.7283900007499999 0.8248350025
 Si1 Si 0.0672350005 0.7283900007499999 0.9251649975
 Si1 Si 0.1827649995 0.5216099992500001 0.8248350025
 Si1 Si 0.1922350005 0.6466099992500001 0.8248350025
 Si1 Si 0.0577649995 0.6033900007499999 0.9251649975
 Si1 Si 0.0577649995 0.6033900007499999 0.8248350025
 Si1 Si 0.1922350005 0.6466099992500001 0.9251649975
 Si1 Si 0.0577649995 0.6466099992500001 0.9251649975
 Si1 Si 0.1922350005 0.6033900007499999 0.8248350025
 Si1 Si 0.1922350005 0.6033900007499999 0.9251649975
 Si1 Si 0.0577649995 0.6466099992500001 0.8248350025
 Si2 Si 0.03017999975 0.5215750002499999 0.824832499
 Si2 Si 0.21982000025 0.72842499975 0.925167501
 Si2 Si 0.21982000025 0.72842499975 0.824832499
 Si2 Si 0.03017999975 0.5215750002499999 0.925167501
 Si2 Si 0.21982000025 0.5215750002499999 0.925167501
 Si2 Si 0.03017999975 0.72842499975 0.824832499
 Si2 Si 0.03017999975 0.72842499975 0.925167501
 Si2 Si 0.21982000025 0.5215750002499999 0.824832499
 Si2 Si 0.15517999975 0.64657500025 0.824832499
 Si2 Si 0.09482000025 0.60342499975 0.925167501
 Si2 Si 0.09482000025 0.60342499975 0.824832499
 Si2 Si 0.15517999975 0.64657500025 0.925167501
 Si2 Si 0.09482000025 0.64657500025 0.925167501
 Si2 Si 0.15517999975 0.60342499975 0.824832499
 Si2 Si 0.15517999975 0.60342499975 0.925167501
 Si2 Si 0.09482000025 0.64657500025 0.824832499
 Si3 Si 0.047362499 0.5764449985 0.75
 Si3 Si 0.047362499 0.5764449985 1.0
 Si3 Si 0.202637501 0.6735550015 0.75
 Si3 Si 0.202637501 0.6735550015 1.0
 Si3 Si 0.202637501 0.5764449985 0.75
 Si3 Si 0.202637501 0.5764449985 1.0
 Si3 Si 0.047362499 0.6735550015 0.75
 Si3 Si 0.047362499 0.6735550015 1.0
 Si3 Si 0.172362499 0.7014449985 0.75
 Si3 Si 0.172362499 0.7014449985 1.0
 Si3 Si 0.077637501 0.5485550015 0.75
 Si3 Si 0.077637501 0.5485550015 1.0
 Si3 Si 0.077637501 0.7014449985 0.75
 Si3 Si 0.077637501 0.7014449985 1.0
 Si3 Si 0.172362499 0.5485550015 0.75
 Si3 Si 0.172362499 0.5485550015 1.0
 Si4 Si 0.01785499975 0.54804499825 0.75
 Si4 Si 0.01785499975 0.54804499825 1.0
 Si4 Si 0.23214500025 0.70195500175 0.75
 Si4 Si 0.23214500025 0.70195500175 1.0
 Si4 Si 0.23214500025 0.54804499825 0.75
 Si4 Si 0.23214500025 0.54804499825 1.0
 Si4 Si 0.01785499975 0.70195500175 0.75
 Si4 Si 0.01785499975 0.70195500175 1.0
 Si4 Si 0.14285499975 0.67304499825 0.75
 Si4 Si 0.14285499975 0.67304499825 1.0
 Si4 Si 0.10714500025 0.57695500175 0.75
 Si4 Si 0.10714500025 0.57695500175 1.0
 Si4 Si 0.10714500025 0.67304499825 0.75
 Si4 Si 0.10714500025 0.67304499825 1.0
 Si4 Si 0.14285499975 0.57695500175 0.75
 Si4 Si 0.14285499975 0.57695500175 1.0
 O1 O 0.04870250075 0.5275350007499999 0.82191000125
 O1 O 0.20129749925 0.72246499925 0.92808999875
 O1 O 0.20129749925 0.72246499925 0.82191000125
 O1 O 0.04870250075 0.5275350007499999 0.92808999875
 O1 O 0.20129749925 0.5275350007499999 0.92808999875
 O1 O 0.04870250075 0.72246499925 0.82191000125
 O1 O 0.04870250075 0.72246499925 0.92808999875
 O1 O 0.20129749925 0.5275350007499999 0.82191000125
 O1 O 0.17370250075 0.65253500075 0.82191000125
 O1 O 0.07629749925 0.5974649992500001 0.92808999875
 O1 O 0.07629749925 0.5974649992500001 0.82191000125
 O1 O 0.17370250075 0.65253500075 0.92808999875
 O1 O 0.07629749925 0.65253500075 0.92808999875
 O1 O 0.17370250075 0.5974649992500001 0.82191000125
 O1 O 0.17370250075 0.5974649992500001 0.92808999875
 O1 O 0.07629749925 0.65253500075 0.82191000125
 O2 O 0.0773824975 0.53536500025 0.7932275012500001
 O2 O 0.1726175025 0.71463499975 0.95677249875
 O2 O 0.1726175025 0.71463499975 0.7932275012500001
 O2 O 0.0773824975 0.53536500025 0.95677249875
 O2 O 0.1726175025 0.53536500025 0.95677249875
 O2 O 0.0773824975 0.71463499975 0.7932275012500001
 O2 O 0.0773824975 0.71463499975 0.95677249875
 O2 O 0.1726175025 0.53536500025 0.7932275012500001
 O2 O 0.2023824975 0.66036500025 0.7932275012500001
 O2 O 0.0476175025 0.58963499975 0.95677249875
 O2 O 0.0476175025 0.58963499975 0.7932275012500001
 O2 O 0.2023824975 0.66036500025 0.95677249875
 O2 O 0.0476175025 0.66036500025 0.95677249875
 O2 O 0.2023824975 0.58963499975 0.7932275012500001
 O2 O 0.2023824975 0.58963499975 0.95677249875
 O2 O 0.0476175025 0.66036500025 0.7932275012500001
 O3 O 0.06933250275 0.5 0.80936750025
 O3 O 0.06933250275 0.75 0.80936750025
 O3 O 0.18066749725 0.5 0.94063249975
 O3 O 0.18066749725 0.75 0.94063249975
 O3 O 0.18066749725 0.5 0.80936750025
 O3 O 0.18066749725 0.75 0.80936750025
 O3 O 0.06933250275 0.5 0.94063249975
 O3 O 0.06933250275 0.75 0.94063249975
 O3 O 0.19433250275 0.625 0.80936750025
 O3 O 0.05566749725 0.625 0.94063249975
 O3 O 0.05566749725 0.625 0.80936750025
 O3 O 0.19433250275 0.625 0.94063249975
 O4 O 0.07323499775 0.52379499925 0.875
 O4 O 0.17676500225 0.72620500075 0.875
 O4 O 0.17676500225 0.52379499925 0.875
 O4 O 0.07323499775 0.72620500075 0.875
 O4 O 0.19823499775 0.64879499925 0.875
 O4 O 0.05176500225 0.60120500075 0.875
 O4 O 0.05176500225 0.64879499925 0.875
 O4 O 0.19823499775 0.60120500075 0.875
 O5 O 0.0281475 0.5 0.8090699985
 O5 O 0.0281475 0.75 0.8090699985
 O5 O 0.2218525 0.5 0.9409300015
 O5 O 0.2218525 0.75 0.9409300015
 O5 O 0.2218525 0.5 0.8090699985
 O5 O 0.2218525 0.75 0.8090699985
 O5 O 0.0281475 0.5 0.9409300015
 O5 O 0.0281475 0.75 0.9409300015
 O5 O 0.1531475 0.625 0.8090699985
 O5 O 0.0968525 0.625 0.9409300015
 O5 O 0.0968525 0.625 0.8090699985
 O5 O 0.1531475 0.625 0.9409300015
 O6 O 0.0241599995 0.5236249995 0.875
 O6 O 0.2258400005 0.7263750005 0.875
 O6 O 0.2258400005 0.5236249995 0.875
 O6 O 0.0241599995 0.7263750005 0.875
 O6 O 0.1491599995 0.6486249995 0.875
 O6 O 0.1008400005 0.6013750005 0.875
 O6 O 0.1008400005 0.6486249995 0.875
 O6 O 0.1491599995 0.6013750005 0.875
 O7 O 0.0198449995 0.53517999875 0.79336500175
 O7 O 0.2301550005 0.71482000125 0.95663499825
 O7 O 0.2301550005 0.71482000125 0.79336500175
 O7 O 0.0198449995 0.53517999875 0.95663499825
 O7 O 0.2301550005 0.53517999875 0.95663499825
 O7 O 0.0198449995 0.71482000125 0.79336500175
 O7 O 0.0198449995 0.71482000125 0.95663499825
 O7 O 0.2301550005 0.53517999875 0.79336500175
 O7 O 0.1448449995 0.66017999875 0.79336500175
 O7 O 0.1051550005 0.58982000125 0.95663499825
 O7 O 0.1051550005 0.58982000125 0.79336500175
 O7 O 0.1448449995 0.66017999875 0.95663499825
 O7 O 0.1051550005 0.66017999875 0.95663499825
 O7 O 0.1448449995 0.58982000125 0.79336500175
 O7 O 0.1448449995 0.58982000125 0.95663499825
 O7 O 0.1051550005 0.66017999875 0.79336500175
 O8 O 0.0625 0.5625 0.75
 O8 O 0.0625 0.5625 1.0
 O8 O 0.1875 0.6875 0.75
 O8 O 0.1875 0.6875 1.0
 O8 O 0.1875 0.5625 0.75
 O8 O 0.1875 0.5625 1.0
 O8 O 0.0625 0.6875 0.75
 O8 O 0.0625 0.6875 1.0
 O9 O 0.03091249975 0.56469249725 0.75
 O9 O 0.03091249975 0.56469249725 1.0
 O9 O 0.21908750025 0.68530750275 0.75
 O9 O 0.21908750025 0.68530750275 1.0
 O9 O 0.21908750025 0.56469249725 0.75
 O9 O 0.21908750025 0.56469249725 1.0
 O9 O 0.03091249975 0.68530750275 0.75
 O9 O 0.03091249975 0.68530750275 1.0
 O9 O 0.15591249975 0.68969249725 0.75
 O9 O 0.15591249975 0.68969249725 1.0
 O9 O 0.09408750025 0.56030750275 0.75
 O9 O 0.09408750025 0.56030750275 1.0
 O9 O 0.09408750025 0.68969249725 0.75
 O9 O 0.09408750025 0.68969249725 1.0
 O9 O 0.15591249975 0.56030750275 0.75
 O9 O 0.15591249975 0.56030750275 1.0
 O10 O 0.0 0.5565750002500001 0.75
 O10 O 0.0 0.5565750002500001 1.0
 O10 O 0.25 0.5565750002500001 0.75
 O10 O 0.25 0.5565750002500001 1.0
 O10 O 0.0 0.6934249997499999 0.75
 O10 O 0.0 0.6934249997499999 1.0
 O10 O 0.25 0.6934249997499999 0.75
 O10 O 0.25 0.6934249997499999 1.0
 O10 O 0.125 0.6815750002500001 0.75
 O10 O 0.125 0.6815750002500001 1.0
 O10 O 0.125 0.5684249997499999 0.75
 O10 O 0.125 0.5684249997499999 1.0
 O2 O 0.0476175025 0.58963499975 0.70677249875
 O2 O 0.0476175025 0.58963499975 1.04322750125
 O2 O 0.2023824975 0.66036500025 0.70677249875
 O2 O 0.2023824975 0.66036500025 1.04322750125
 O2 O 0.2023824975 0.58963499975 0.70677249875
 O2 O 0.2023824975 0.58963499975 1.04322750125
 O2 O 0.0476175025 0.66036500025 0.70677249875
 O2 O 0.0476175025 0.66036500025 1.04322750125
 O2 O 0.1726175025 0.71463499975 0.70677249875
 O2 O 0.1726175025 0.71463499975 1.04322750125
 O2 O 0.0773824975 0.53536500025 0.70677249875
 O2 O 0.0773824975 0.53536500025 1.04322750125
 O2 O 0.0773824975 0.71463499975 0.70677249875
 O2 O 0.0773824975 0.71463499975 1.04322750125
 O2 O 0.1726175025 0.53536500025 0.70677249875
 O2 O 0.1726175025 0.53536500025 1.04322750125
 O7 O 0.0198449995 0.53517999875 0.70663499825
 O7 O 0.0198449995 0.53517999875 1.04336500175
 O7 O 0.2301550005 0.71482000125 0.70663499825
 O7 O 0.2301550005 0.71482000125 1.04336500175
 O7 O 0.2301550005 0.53517999875 0.70663499825
 O7 O 0.2301550005 0.53517999875 1.04336500175
 O7 O 0.0198449995 0.71482000125 0.70663499825
 O7 O 0.0198449995 0.71482000125 1.04336500175
 O7 O 0.1448449995 0.66017999875 0.70663499825
 O7 O 0.1448449995 0.66017999875 1.04336500175
 O7 O 0.1051550005 0.58982000125 0.70663499825
 O7 O 0.1051550005 0.58982000125 1.04336500175
 O7 O 0.1051550005 0.66017999875 0.70663499825
 O7 O 0.1051550005 0.66017999875 1.04336500175
 O7 O 0.1448449995 0.58982000125 0.70663499825
 O7 O 0.1448449995 0.58982000125 1.04336500175
 Si1 Si 0.3172350005 0.5216099992500001 0.8248350025
 Si1 Si 0.4327649995 0.7283900007499999 0.9251649975
 Si1 Si 0.4327649995 0.7283900007499999 0.8248350025
 Si1 Si 0.3172350005 0.5216099992500001 0.9251649975
 Si1 Si 0.4327649995 0.5216099992500001 0.9251649975
 Si1 Si 0.3172350005 0.7283900007499999 0.8248350025
 Si1 Si 0.3172350005 0.7283900007499999 0.9251649975
 Si1 Si 0.4327649995 0.5216099992500001 0.8248350025
 Si1 Si 0.4422350005 0.6466099992500001 0.8248350025
 Si1 Si 0.3077649995 0.6033900007499999 0.9251649975
 Si1 Si 0.3077649995 0.6033900007499999 0.8248350025
 Si1 Si 0.4422350005 0.6466099992500001 0.9251649975
 Si1 Si 0.3077649995 0.6466099992500001 0.9251649975
 Si1 Si 0.4422350005 0.6033900007499999 0.8248350025
 Si1 Si 0.4422350005 0.6033900007499999 0.9251649975
 Si1 Si 0.3077649995 0.6466099992500001 0.8248350025
 Si2 Si 0.28017999975 0.5215750002499999 0.824832499
 Si2 Si 0.46982000025000004 0.72842499975 0.925167501
 Si2 Si 0.46982000025000004 0.72842499975 0.824832499
 Si2 Si 0.28017999975 0.5215750002499999 0.925167501
 Si2 Si 0.46982000025000004 0.5215750002499999 0.925167501
 Si2 Si 0.28017999975 0.72842499975 0.824832499
 Si2 Si 0.28017999975 0.72842499975 0.925167501
 Si2 Si 0.46982000025000004 0.5215750002499999 0.824832499
 Si2 Si 0.40517999974999996 0.64657500025 0.824832499
 Si2 Si 0.34482000025 0.60342499975 0.925167501
 Si2 Si 0.34482000025 0.60342499975 0.824832499
 Si2 Si 0.40517999974999996 0.64657500025 0.925167501
 Si2 Si 0.34482000025 0.64657500025 0.925167501
 Si2 Si 0.40517999974999996 0.60342499975 0.824832499
 Si2 Si 0.40517999974999996 0.60342499975 0.925167501
 Si2 Si 0.34482000025 0.64657500025 0.824832499
 Si3 Si 0.297362499 0.5764449985 0.75
 Si3 Si 0.297362499 0.5764449985 1.0
 Si3 Si 0.452637501 0.6735550015 0.75
 Si3 Si 0.452637501 0.6735550015 1.0
 Si3 Si 0.452637501 0.5764449985 0.75
 Si3 Si 0.452637501 0.5764449985 1.0
 Si3 Si 0.297362499 0.6735550015 0.75
 Si3 Si 0.297362499 0.6735550015 1.0
 Si3 Si 0.422362499 0.7014449985 0.75
 Si3 Si 0.422362499 0.7014449985 1.0
 Si3 Si 0.327637501 0.5485550015 0.75
 Si3 Si 0.327637501 0.5485550015 1.0
 Si3 Si 0.327637501 0.7014449985 0.75
 Si3 Si 0.327637501 0.7014449985 1.0
 Si3 Si 0.422362499 0.5485550015 0.75
 Si3 Si 0.422362499 0.5485550015 1.0
 Si4 Si 0.26785499975 0.54804499825 0.75
 Si4 Si 0.26785499975 0.54804499825 1.0
 Si4 Si 0.48214500025 0.70195500175 0.75
 Si4 Si 0.48214500025 0.70195500175 1.0
 Si4 Si 0.48214500025 0.54804499825 0.75
 Si4 Si 0.48214500025 0.54804499825 1.0
 Si4 Si 0.26785499975 0.70195500175 0.75
 Si4 Si 0.26785499975 0.70195500175 1.0
 Si4 Si 0.39285499975 0.67304499825 0.75
 Si4 Si 0.39285499975 0.67304499825 1.0
 Si4 Si 0.35714500025 0.57695500175 0.75
 Si4 Si 0.35714500025 0.57695500175 1.0
 Si4 Si 0.35714500025 0.67304499825 0.75
 Si4 Si 0.35714500025 0.67304499825 1.0
 Si4 Si 0.39285499975 0.57695500175 0.75
 Si4 Si 0.39285499975 0.57695500175 1.0
 O1 O 0.29870250075 0.5275350007499999 0.82191000125
 O1 O 0.45129749925 0.72246499925 0.92808999875
 O1 O 0.45129749925 0.72246499925 0.82191000125
 O1 O 0.29870250075 0.5275350007499999 0.92808999875
 O1 O 0.45129749925 0.5275350007499999 0.92808999875
 O1 O 0.29870250075 0.72246499925 0.82191000125
 O1 O 0.29870250075 0.72246499925 0.92808999875
 O1 O 0.45129749925 0.5275350007499999 0.82191000125
 O1 O 0.42370250075 0.65253500075 0.82191000125
 O1 O 0.32629749925 0.5974649992500001 0.92808999875
 O1 O 0.32629749925 0.5974649992500001 0.82191000125
 O1 O 0.42370250075 0.65253500075 0.92808999875
 O1 O 0.32629749925 0.65253500075 0.92808999875
 O1 O 0.42370250075 0.5974649992500001 0.82191000125
 O1 O 0.42370250075 0.5974649992500001 0.92808999875
 O1 O 0.32629749925 0.65253500075 0.82191000125
 O2 O 0.3273824975 0.53536500025 0.7932275012500001
 O2 O 0.42261750249999996 0.71463499975 0.95677249875
 O2 O 0.42261750249999996 0.71463499975 0.7932275012500001
 O2 O 0.3273824975 0.53536500025 0.95677249875
 O2 O 0.42261750249999996 0.53536500025 0.95677249875
 O2 O 0.3273824975 0.71463499975 0.7932275012500001
 O2 O 0.3273824975 0.71463499975 0.95677249875
 O2 O 0.42261750249999996 0.53536500025 0.7932275012500001
 O2 O 0.45238249750000004 0.66036500025 0.7932275012500001
 O2 O 0.2976175025 0.58963499975 0.95677249875
 O2 O 0.2976175025 0.58963499975 0.7932275012500001
 O2 O 0.45238249750000004 0.66036500025 0.95677249875
 O2 O 0.2976175025 0.66036500025 0.95677249875
 O2 O 0.45238249750000004 0.58963499975 0.7932275012500001
 O2 O 0.45238249750000004 0.58963499975 0.95677249875
 O2 O 0.2976175025 0.66036500025 0.7932275012500001
 O3 O 0.31933250275 0.5 0.80936750025
 O3 O 0.31933250275 0.75 0.80936750025
 O3 O 0.43066749725 0.5 0.94063249975
 O3 O 0.43066749725 0.75 0.94063249975
 O3 O 0.43066749725 0.5 0.80936750025
 O3 O 0.43066749725 0.75 0.80936750025
 O3 O 0.31933250275 0.5 0.94063249975
 O3 O 0.31933250275 0.75 0.94063249975
 O3 O 0.44433250275 0.625 0.80936750025
 O3 O 0.30566749725 0.625 0.94063249975
 O3 O 0.30566749725 0.625 0.80936750025
 O3 O 0.44433250275 0.625 0.94063249975
 O4 O 0.32323499775 0.52379499925 0.875
 O4 O 0.42676500225 0.72620500075 0.875
 O4 O 0.42676500225 0.52379499925 0.875
 O4 O 0.32323499775 0.72620500075 0.875
 O4 O 0.44823499775 0.64879499925 0.875
 O4 O 0.30176500225 0.60120500075 0.875
 O4 O 0.30176500225 0.64879499925 0.875
 O4 O 0.44823499775 0.60120500075 0.875
 O5 O 0.2781475 0.5 0.8090699985
 O5 O 0.2781475 0.75 0.8090699985
 O5 O 0.4718525 0.5 0.9409300015
 O5 O 0.4718525 0.75 0.9409300015
 O5 O 0.4718525 0.5 0.8090699985
 O5 O 0.4718525 0.75 0.8090699985
 O5 O 0.2781475 0.5 0.9409300015
 O5 O 0.2781475 0.75 0.9409300015
 O5 O 0.4031475 0.625 0.8090699985
 O5 O 0.3468525 0.625 0.9409300015
 O5 O 0.3468525 0.625 0.8090699985
 O5 O 0.4031475 0.625 0.9409300015
 O6 O 0.27415999950000003 0.5236249995 0.875
 O6 O 0.47584000049999997 0.7263750005 0.875
 O6 O 0.47584000049999997 0.5236249995 0.875
 O6 O 0.27415999950000003 0.7263750005 0.875
 O6 O 0.39915999950000003 0.6486249995 0.875
 O6 O 0.35084000049999997 0.6013750005 0.875
 O6 O 0.35084000049999997 0.6486249995 0.875
 O6 O 0.39915999950000003 0.6013750005 0.875
 O7 O 0.2698449995 0.53517999875 0.79336500175
 O7 O 0.48015500050000004 0.71482000125 0.95663499825
 O7 O 0.48015500050000004 0.71482000125 0.79336500175
 O7 O 0.2698449995 0.53517999875 0.95663499825
 O7 O 0.48015500050000004 0.53517999875 0.95663499825
 O7 O 0.2698449995 0.71482000125 0.79336500175
 O7 O 0.2698449995 0.71482000125 0.95663499825
 O7 O 0.48015500050000004 0.53517999875 0.79336500175
 O7 O 0.39484499949999996 0.66017999875 0.79336500175
 O7 O 0.3551550005 0.58982000125 0.95663499825
 O7 O 0.3551550005 0.58982000125 0.79336500175
 O7 O 0.39484499949999996 0.66017999875 0.95663499825
 O7 O 0.3551550005 0.66017999875 0.95663499825
 O7 O 0.39484499949999996 0.58982000125 0.79336500175
 O7 O 0.39484499949999996 0.58982000125 0.95663499825
 O7 O 0.3551550005 0.66017999875 0.79336500175
 O8 O 0.3125 0.5625 0.75
 O8 O 0.3125 0.5625 1.0
 O8 O 0.4375 0.6875 0.75
 O8 O 0.4375 0.6875 1.0
 O8 O 0.4375 0.5625 0.75
 O8 O 0.4375 0.5625 1.0
 O8 O 0.3125 0.6875 0.75
 O8 O 0.3125 0.6875 1.0
 O9 O 0.28091249975 0.56469249725 0.75
 O9 O 0.28091249975 0.56469249725 1.0
 O9 O 0.46908750025 0.68530750275 0.75
 O9 O 0.46908750025 0.68530750275 1.0
 O9 O 0.46908750025 0.56469249725 0.75
 O9 O 0.46908750025 0.56469249725 1.0
 O9 O 0.28091249975 0.68530750275 0.75
 O9 O 0.28091249975 0.68530750275 1.0
 O9 O 0.40591249975 0.68969249725 0.75
 O9 O 0.40591249975 0.68969249725 1.0
 O9 O 0.34408750025 0.56030750275 0.75
 O9 O 0.34408750025 0.56030750275 1.0
 O9 O 0.34408750025 0.68969249725 0.75
 O9 O 0.34408750025 0.68969249725 1.0
 O9 O 0.40591249975 0.56030750275 0.75
 O9 O 0.40591249975 0.56030750275 1.0
 O10 O 0.25 0.5565750002500001 0.75
 O10 O 0.25 0.5565750002500001 1.0
 O10 O 0.5 0.5565750002500001 0.75
 O10 O 0.5 0.5565750002500001 1.0
 O10 O 0.25 0.6934249997499999 0.75
 O10 O 0.25 0.6934249997499999 1.0
 O10 O 0.5 0.6934249997499999 0.75
 O10 O 0.5 0.6934249997499999 1.0
 O10 O 0.375 0.6815750002500001 0.75
 O10 O 0.375 0.6815750002500001 1.0
 O10 O 0.375 0.5684249997499999 0.75
 O10 O 0.375 0.5684249997499999 1.0
 O2 O 0.2976175025 0.58963499975 0.70677249875
 O2 O 0.2976175025 0.58963499975 1.04322750125
 O2 O 0.45238249750000004 0.66036500025 0.70677249875
 O2 O 0.45238249750000004 0.66036500025 1.04322750125
 O2 O 0.45238249750000004 0.58963499975 0.70677249875
 O2 O 0.45238249750000004 0.58963499975 1.04322750125
 O2 O 0.2976175025 0.66036500025 0.70677249875
 O2 O 0.2976175025 0.66036500025 1.04322750125
 O2 O 0.42261750249999996 0.71463499975 0.70677249875
 O2 O 0.42261750249999996 0.71463499975 1.04322750125
 O2 O 0.3273824975 0.53536500025 0.70677249875
 O2 O 0.3273824975 0.53536500025 1.04322750125
 O2 O 0.3273824975 0.71463499975 0.70677249875
 O2 O 0.3273824975 0.71463499975 1.04322750125
 O2 O 0.42261750249999996 0.53536500025 0.70677249875
 O2 O 0.42261750249999996 0.53536500025 1.04322750125
 O7 O 0.2698449995 0.53517999875 0.70663499825
 O7 O 0.2698449995 0.53517999875 1.04336500175
 O7 O 0.48015500050000004 0.71482000125 0.70663499825
 O7 O 0.48015500050000004 0.71482000125 1.04336500175
 O7 O 0.48015500050000004 0.53517999875 0.70663499825
 O7 O 0.48015500050000004 0.53517999875 1.04336500175
 O7 O 0.2698449995 0.71482000125 0.70663499825
 O7 O 0.2698449995 0.71482000125 1.04336500175
 O7 O 0.39484499949999996 0.66017999875 0.70663499825
 O7 O 0.39484499949999996 0.66017999875 1.04336500175
 O7 O 0.3551550005 0.58982000125 0.70663499825
 O7 O 0.3551550005 0.58982000125 1.04336500175
 O7 O 0.3551550005 0.66017999875 0.70663499825
 O7 O 0.3551550005 0.66017999875 1.04336500175
 O7 O 0.39484499949999996 0.58982000125 0.70663499825
 O7 O 0.39484499949999996 0.58982000125 1.04336500175
 Si1 Si 0.5672350005 0.5216099992500001 0.8248350025
 Si1 Si 0.6827649995 0.7283900007499999 0.9251649975
 Si1 Si 0.6827649995 0.7283900007499999 0.8248350025
 Si1 Si 0.5672350005 0.5216099992500001 0.9251649975
 Si1 Si 0.6827649995 0.5216099992500001 0.9251649975
 Si1 Si 0.5672350005 0.7283900007499999 0.8248350025
 Si1 Si 0.5672350005 0.7283900007499999 0.9251649975
 Si1 Si 0.6827649995 0.5216099992500001 0.8248350025
 Si1 Si 0.6922350005 0.6466099992500001 0.8248350025
 Si1 Si 0.5577649995 0.6033900007499999 0.9251649975
 Si1 Si 0.5577649995 0.6033900007499999 0.8248350025
 Si1 Si 0.6922350005 0.6466099992500001 0.9251649975
 Si1 Si 0.5577649995 0.6466099992500001 0.9251649975
 Si1 Si 0.6922350005 0.6033900007499999 0.8248350025
 Si1 Si 0.6922350005 0.6033900007499999 0.9251649975
 Si1 Si 0.5577649995 0.6466099992500001 0.8248350025
 Si2 Si 0.5301799997500001 0.5215750002499999 0.824832499
 Si2 Si 0.71982000025 0.72842499975 0.925167501
 Si2 Si 0.71982000025 0.72842499975 0.824832499
 Si2 Si 0.5301799997500001 0.5215750002499999 0.925167501
 Si2 Si 0.71982000025 0.5215750002499999 0.925167501
 Si2 Si 0.5301799997500001 0.72842499975 0.824832499
 Si2 Si 0.5301799997500001 0.72842499975 0.925167501
 Si2 Si 0.71982000025 0.5215750002499999 0.824832499
 Si2 Si 0.65517999975 0.64657500025 0.824832499
 Si2 Si 0.5948200002499999 0.60342499975 0.925167501
 Si2 Si 0.5948200002499999 0.60342499975 0.824832499
 Si2 Si 0.65517999975 0.64657500025 0.925167501
 Si2 Si 0.5948200002499999 0.64657500025 0.925167501
 Si2 Si 0.65517999975 0.60342499975 0.824832499
 Si2 Si 0.65517999975 0.60342499975 0.925167501
 Si2 Si 0.5948200002499999 0.64657500025 0.824832499
 Si3 Si 0.547362499 0.5764449985 0.75
 Si3 Si 0.547362499 0.5764449985 1.0
 Si3 Si 0.702637501 0.6735550015 0.75
 Si3 Si 0.702637501 0.6735550015 1.0
 Si3 Si 0.702637501 0.5764449985 0.75
 Si3 Si 0.702637501 0.5764449985 1.0
 Si3 Si 0.547362499 0.6735550015 0.75
 Si3 Si 0.547362499 0.6735550015 1.0
 Si3 Si 0.672362499 0.7014449985 0.75
 Si3 Si 0.672362499 0.7014449985 1.0
 Si3 Si 0.577637501 0.5485550015 0.75
 Si3 Si 0.577637501 0.5485550015 1.0
 Si3 Si 0.577637501 0.7014449985 0.75
 Si3 Si 0.577637501 0.7014449985 1.0
 Si3 Si 0.672362499 0.5485550015 0.75
 Si3 Si 0.672362499 0.5485550015 1.0
 Si4 Si 0.5178549997499999 0.54804499825 0.75
 Si4 Si 0.5178549997499999 0.54804499825 1.0
 Si4 Si 0.7321450002500001 0.70195500175 0.75
 Si4 Si 0.7321450002500001 0.70195500175 1.0
 Si4 Si 0.7321450002500001 0.54804499825 0.75
 Si4 Si 0.7321450002500001 0.54804499825 1.0
 Si4 Si 0.5178549997499999 0.70195500175 0.75
 Si4 Si 0.5178549997499999 0.70195500175 1.0
 Si4 Si 0.6428549997499999 0.67304499825 0.75
 Si4 Si 0.6428549997499999 0.67304499825 1.0
 Si4 Si 0.6071450002500001 0.57695500175 0.75
 Si4 Si 0.6071450002500001 0.57695500175 1.0
 Si4 Si 0.6071450002500001 0.67304499825 0.75
 Si4 Si 0.6071450002500001 0.67304499825 1.0
 Si4 Si 0.6428549997499999 0.57695500175 0.75
 Si4 Si 0.6428549997499999 0.57695500175 1.0
 O1 O 0.5487025007499999 0.5275350007499999 0.82191000125
 O1 O 0.7012974992500001 0.72246499925 0.92808999875
 O1 O 0.7012974992500001 0.72246499925 0.82191000125
 O1 O 0.5487025007499999 0.5275350007499999 0.92808999875
 O1 O 0.7012974992500001 0.5275350007499999 0.92808999875
 O1 O 0.5487025007499999 0.72246499925 0.82191000125
 O1 O 0.5487025007499999 0.72246499925 0.92808999875
 O1 O 0.7012974992500001 0.5275350007499999 0.82191000125
 O1 O 0.6737025007499999 0.65253500075 0.82191000125
 O1 O 0.5762974992500001 0.5974649992500001 0.92808999875
 O1 O 0.5762974992500001 0.5974649992500001 0.82191000125
 O1 O 0.6737025007499999 0.65253500075 0.92808999875
 O1 O 0.5762974992500001 0.65253500075 0.92808999875
 O1 O 0.6737025007499999 0.5974649992500001 0.82191000125
 O1 O 0.6737025007499999 0.5974649992500001 0.92808999875
 O1 O 0.5762974992500001 0.65253500075 0.82191000125
 O2 O 0.5773824974999999 0.53536500025 0.7932275012500001
 O2 O 0.6726175025 0.71463499975 0.95677249875
 O2 O 0.6726175025 0.71463499975 0.7932275012500001
 O2 O 0.5773824974999999 0.53536500025 0.95677249875
 O2 O 0.6726175025 0.53536500025 0.95677249875
 O2 O 0.5773824974999999 0.71463499975 0.7932275012500001
 O2 O 0.5773824974999999 0.71463499975 0.95677249875
 O2 O 0.6726175025 0.53536500025 0.7932275012500001
 O2 O 0.7023824975 0.66036500025 0.7932275012500001
 O2 O 0.5476175025000001 0.58963499975 0.95677249875
 O2 O 0.5476175025000001 0.58963499975 0.7932275012500001
 O2 O 0.7023824975 0.66036500025 0.95677249875
 O2 O 0.5476175025000001 0.66036500025 0.95677249875
 O2 O 0.7023824975 0.58963499975 0.7932275012500001
 O2 O 0.7023824975 0.58963499975 0.95677249875
 O2 O 0.5476175025000001 0.66036500025 0.7932275012500001
 O3 O 0.56933250275 0.5 0.80936750025
 O3 O 0.56933250275 0.75 0.80936750025
 O3 O 0.68066749725 0.5 0.94063249975
 O3 O 0.68066749725 0.75 0.94063249975
 O3 O 0.68066749725 0.5 0.80936750025
 O3 O 0.68066749725 0.75 0.80936750025
 O3 O 0.56933250275 0.5 0.94063249975
 O3 O 0.56933250275 0.75 0.94063249975
 O3 O 0.69433250275 0.625 0.80936750025
 O3 O 0.55566749725 0.625 0.94063249975
 O3 O 0.55566749725 0.625 0.80936750025
 O3 O 0.69433250275 0.625 0.94063249975
 O4 O 0.57323499775 0.52379499925 0.875
 O4 O 0.67676500225 0.72620500075 0.875
 O4 O 0.67676500225 0.52379499925 0.875
 O4 O 0.57323499775 0.72620500075 0.875
 O4 O 0.69823499775 0.64879499925 0.875
 O4 O 0.55176500225 0.60120500075 0.875
 O4 O 0.55176500225 0.64879499925 0.875
 O4 O 0.69823499775 0.60120500075 0.875
 O5 O 0.5281475 0.5 0.8090699985
 O5 O 0.5281475 0.75 0.8090699985
 O5 O 0.7218525 0.5 0.9409300015
 O5 O 0.7218525 0.75 0.9409300015
 O5 O 0.7218525 0.5 0.8090699985
 O5 O 0.7218525 0.75 0.8090699985
 O5 O 0.5281475 0.5 0.9409300015
 O5 O 0.5281475 0.75 0.9409300015
 O5 O 0.6531475 0.625 0.8090699985
 O5 O 0.5968525 0.625 0.9409300015
 O5 O 0.5968525 0.625 0.8090699985
 O5 O 0.6531475 0.625 0.9409300015
 O6 O 0.5241599995 0.5236249995 0.875
 O6 O 0.7258400005 0.7263750005 0.875
 O6 O 0.7258400005 0.5236249995 0.875
 O6 O 0.5241599995 0.7263750005 0.875
 O6 O 0.6491599995 0.6486249995 0.875
 O6 O 0.6008400005 0.6013750005 0.875
 O6 O 0.6008400005 0.6486249995 0.875
 O6 O 0.6491599995 0.6013750005 0.875
 O7 O 0.5198449995000001 0.53517999875 0.79336500175
 O7 O 0.7301550005 0.71482000125 0.95663499825
 O7 O 0.7301550005 0.71482000125 0.79336500175
 O7 O 0.5198449995000001 0.53517999875 0.95663499825
 O7 O 0.7301550005 0.53517999875 0.95663499825
 O7 O 0.5198449995000001 0.71482000125 0.79336500175
 O7 O 0.5198449995000001 0.71482000125 0.95663499825
 O7 O 0.7301550005 0.53517999875 0.79336500175
 O7 O 0.6448449995 0.66017999875 0.79336500175
 O7 O 0.6051550004999999 0.58982000125 0.95663499825
 O7 O 0.6051550004999999 0.58982000125 0.79336500175
 O7 O 0.6448449995 0.66017999875 0.95663499825
 O7 O 0.6051550004999999 0.66017999875 0.95663499825
 O7 O 0.6448449995 0.58982000125 0.79336500175
 O7 O 0.6448449995 0.58982000125 0.95663499825
 O7 O 0.6051550004999999 0.66017999875 0.79336500175
 O8 O 0.5625 0.5625 0.75
 O8 O 0.5625 0.5625 1.0
 O8 O 0.6875 0.6875 0.75
 O8 O 0.6875 0.6875 1.0
 O8 O 0.6875 0.5625 0.75
 O8 O 0.6875 0.5625 1.0
 O8 O 0.5625 0.6875 0.75
 O8 O 0.5625 0.6875 1.0
 O9 O 0.53091249975 0.56469249725 0.75
 O9 O 0.53091249975 0.56469249725 1.0
 O9 O 0.71908750025 0.68530750275 0.75
 O9 O 0.71908750025 0.68530750275 1.0
 O9 O 0.71908750025 0.56469249725 0.75
 O9 O 0.71908750025 0.56469249725 1.0
 O9 O 0.53091249975 0.68530750275 0.75
 O9 O 0.53091249975 0.68530750275 1.0
 O9 O 0.65591249975 0.68969249725 0.75
 O9 O 0.65591249975 0.68969249725 1.0
 O9 O 0.59408750025 0.56030750275 0.75
 O9 O 0.59408750025 0.56030750275 1.0
 O9 O 0.59408750025 0.68969249725 0.75
 O9 O 0.59408750025 0.68969249725 1.0
 O9 O 0.65591249975 0.56030750275 0.75
 O9 O 0.65591249975 0.56030750275 1.0
 O10 O 0.5 0.5565750002500001 0.75
 O10 O 0.5 0.5565750002500001 1.0
 O10 O 0.75 0.5565750002500001 0.75
 O10 O 0.75 0.5565750002500001 1.0
 O10 O 0.5 0.6934249997499999 0.75
 O10 O 0.5 0.6934249997499999 1.0
 O10 O 0.75 0.6934249997499999 0.75
 O10 O 0.75 0.6934249997499999 1.0
 O10 O 0.625 0.6815750002500001 0.75
 O10 O 0.625 0.6815750002500001 1.0
 O10 O 0.625 0.5684249997499999 0.75
 O10 O 0.625 0.5684249997499999 1.0
 O2 O 0.5476175025000001 0.58963499975 0.70677249875
 O2 O 0.5476175025000001 0.58963499975 1.04322750125
 O2 O 0.7023824975 0.66036500025 0.70677249875
 O2 O 0.7023824975 0.66036500025 1.04322750125
 O2 O 0.7023824975 0.58963499975 0.70677249875
 O2 O 0.7023824975 0.58963499975 1.04322750125
 O2 O 0.5476175025000001 0.66036500025 0.70677249875
 O2 O 0.5476175025000001 0.66036500025 1.04322750125
 O2 O 0.6726175025 0.71463499975 0.70677249875
 O2 O 0.6726175025 0.71463499975 1.04322750125
 O2 O 0.5773824974999999 0.53536500025 0.70677249875
 O2 O 0.5773824974999999 0.53536500025 1.04322750125
 O2 O 0.5773824974999999 0.71463499975 0.70677249875
 O2 O 0.5773824974999999 0.71463499975 1.04322750125
 O2 O 0.6726175025 0.53536500025 0.70677249875
 O2 O 0.6726175025 0.53536500025 1.04322750125
 O7 O 0.5198449995000001 0.53517999875 0.70663499825
 O7 O 0.5198449995000001 0.53517999875 1.04336500175
 O7 O 0.7301550005 0.71482000125 0.70663499825
 O7 O 0.7301550005 0.71482000125 1.04336500175
 O7 O 0.7301550005 0.53517999875 0.70663499825
 O7 O 0.7301550005 0.53517999875 1.04336500175
 O7 O 0.5198449995000001 0.71482000125 0.70663499825
 O7 O 0.5198449995000001 0.71482000125 1.04336500175
 O7 O 0.6448449995 0.66017999875 0.70663499825
 O7 O 0.6448449995 0.66017999875 1.04336500175
 O7 O 0.6051550004999999 0.58982000125 0.70663499825
 O7 O 0.6051550004999999 0.58982000125 1.04336500175
 O7 O 0.6051550004999999 0.66017999875 0.70663499825
 O7 O 0.6051550004999999 0.66017999875 1.04336500175
 O7 O 0.6448449995 0.58982000125 0.70663499825
 O7 O 0.6448449995 0.58982000125 1.04336500175
 Si1 Si 0.8172350005 0.5216099992500001 0.8248350025
 Si1 Si 0.9327649995 0.7283900007499999 0.9251649975
 Si1 Si 0.9327649995 0.7283900007499999 0.8248350025
 Si1 Si 0.8172350005 0.5216099992500001 0.9251649975
 Si1 Si 0.9327649995 0.5216099992500001 0.9251649975
 Si1 Si 0.8172350005 0.7283900007499999 0.8248350025
 Si1 Si 0.8172350005 0.7283900007499999 0.9251649975
 Si1 Si 0.9327649995 0.5216099992500001 0.8248350025
 Si1 Si 0.9422350005 0.6466099992500001 0.8248350025
 Si1 Si 0.8077649995 0.6033900007499999 0.9251649975
 Si1 Si 0.8077649995 0.6033900007499999 0.8248350025
 Si1 Si 0.9422350005 0.6466099992500001 0.9251649975
 Si1 Si 0.8077649995 0.6466099992500001 0.9251649975
 Si1 Si 0.9422350005 0.6033900007499999 0.8248350025
 Si1 Si 0.9422350005 0.6033900007499999 0.9251649975
 Si1 Si 0.8077649995 0.6466099992500001 0.8248350025
 Si2 Si 0.7801799997500001 0.5215750002499999 0.824832499
 Si2 Si 0.96982000025 0.72842499975 0.925167501
 Si2 Si 0.96982000025 0.72842499975 0.824832499
 Si2 Si 0.7801799997500001 0.5215750002499999 0.925167501
 Si2 Si 0.96982000025 0.5215750002499999 0.925167501
 Si2 Si 0.7801799997500001 0.72842499975 0.824832499
 Si2 Si 0.7801799997500001 0.72842499975 0.925167501
 Si2 Si 0.96982000025 0.5215750002499999 0.824832499
 Si2 Si 0.90517999975 0.64657500025 0.824832499
 Si2 Si 0.8448200002499999 0.60342499975 0.925167501
 Si2 Si 0.8448200002499999 0.60342499975 0.824832499
 Si2 Si 0.90517999975 0.64657500025 0.925167501
 Si2 Si 0.8448200002499999 0.64657500025 0.925167501
 Si2 Si 0.90517999975 0.60342499975 0.824832499
 Si2 Si 0.90517999975 0.60342499975 0.925167501
 Si2 Si 0.8448200002499999 0.64657500025 0.824832499
 Si3 Si 0.797362499 0.5764449985 0.75
 Si3 Si 0.797362499 0.5764449985 1.0
 Si3 Si 0.952637501 0.6735550015 0.75
 Si3 Si 0.952637501 0.6735550015 1.0
 Si3 Si 0.952637501 0.5764449985 0.75
 Si3 Si 0.952637501 0.5764449985 1.0
 Si3 Si 0.797362499 0.6735550015 0.75
 Si3 Si 0.797362499 0.6735550015 1.0
 Si3 Si 0.922362499 0.7014449985 0.75
 Si3 Si 0.922362499 0.7014449985 1.0
 Si3 Si 0.827637501 0.5485550015 0.75
 Si3 Si 0.827637501 0.5485550015 1.0
 Si3 Si 0.827637501 0.7014449985 0.75
 Si3 Si 0.827637501 0.7014449985 1.0
 Si3 Si 0.922362499 0.5485550015 0.75
 Si3 Si 0.922362499 0.5485550015 1.0
 Si4 Si 0.7678549997499999 0.54804499825 0.75
 Si4 Si 0.7678549997499999 0.54804499825 1.0
 Si4 Si 0.9821450002500001 0.70195500175 0.75
 Si4 Si 0.9821450002500001 0.70195500175 1.0
 Si4 Si 0.9821450002500001 0.54804499825 0.75
 Si4 Si 0.9821450002500001 0.54804499825 1.0
 Si4 Si 0.7678549997499999 0.70195500175 0.75
 Si4 Si 0.7678549997499999 0.70195500175 1.0
 Si4 Si 0.8928549997499999 0.67304499825 0.75
 Si4 Si 0.8928549997499999 0.67304499825 1.0
 Si4 Si 0.8571450002500001 0.57695500175 0.75
 Si4 Si 0.8571450002500001 0.57695500175 1.0
 Si4 Si 0.8571450002500001 0.67304499825 0.75
 Si4 Si 0.8571450002500001 0.67304499825 1.0
 Si4 Si 0.8928549997499999 0.57695500175 0.75
 Si4 Si 0.8928549997499999 0.57695500175 1.0
 O1 O 0.7987025007499999 0.5275350007499999 0.82191000125
 O1 O 0.9512974992500001 0.72246499925 0.92808999875
 O1 O 0.9512974992500001 0.72246499925 0.82191000125
 O1 O 0.7987025007499999 0.5275350007499999 0.92808999875
 O1 O 0.9512974992500001 0.5275350007499999 0.92808999875
 O1 O 0.7987025007499999 0.72246499925 0.82191000125
 O1 O 0.7987025007499999 0.72246499925 0.92808999875
 O1 O 0.9512974992500001 0.5275350007499999 0.82191000125
 O1 O 0.9237025007499999 0.65253500075 0.82191000125
 O1 O 0.8262974992500001 0.5974649992500001 0.92808999875
 O1 O 0.8262974992500001 0.5974649992500001 0.82191000125
 O1 O 0.9237025007499999 0.65253500075 0.92808999875
 O1 O 0.8262974992500001 0.65253500075 0.92808999875
 O1 O 0.9237025007499999 0.5974649992500001 0.82191000125
 O1 O 0.9237025007499999 0.5974649992500001 0.92808999875
 O1 O 0.8262974992500001 0.65253500075 0.82191000125
 O2 O 0.8273824974999999 0.53536500025 0.7932275012500001
 O2 O 0.9226175025 0.71463499975 0.95677249875
 O2 O 0.9226175025 0.71463499975 0.7932275012500001
 O2 O 0.8273824974999999 0.53536500025 0.95677249875
 O2 O 0.9226175025 0.53536500025 0.95677249875
 O2 O 0.8273824974999999 0.71463499975 0.7932275012500001
 O2 O 0.8273824974999999 0.71463499975 0.95677249875
 O2 O 0.9226175025 0.53536500025 0.7932275012500001
 O2 O 0.9523824975 0.66036500025 0.7932275012500001
 O2 O 0.7976175025000001 0.58963499975 0.95677249875
 O2 O 0.7976175025000001 0.58963499975 0.7932275012500001
 O2 O 0.9523824975 0.66036500025 0.95677249875
 O2 O 0.7976175025000001 0.66036500025 0.95677249875
 O2 O 0.9523824975 0.58963499975 0.7932275012500001
 O2 O 0.9523824975 0.58963499975 0.95677249875
 O2 O 0.7976175025000001 0.66036500025 0.7932275012500001
 O3 O 0.81933250275 0.5 0.80936750025
 O3 O 0.81933250275 0.75 0.80936750025
 O3 O 0.93066749725 0.5 0.94063249975
 O3 O 0.93066749725 0.75 0.94063249975
 O3 O 0.93066749725 0.5 0.80936750025
 O3 O 0.93066749725 0.75 0.80936750025
 O3 O 0.81933250275 0.5 0.94063249975
 O3 O 0.81933250275 0.75 0.94063249975
 O3 O 0.94433250275 0.625 0.80936750025
 O3 O 0.80566749725 0.625 0.94063249975
 O3 O 0.80566749725 0.625 0.80936750025
 O3 O 0.94433250275 0.625 0.94063249975
 O4 O 0.82323499775 0.52379499925 0.875
 O4 O 0.92676500225 0.72620500075 0.875
 O4 O 0.92676500225 0.52379499925 0.875
 O4 O 0.82323499775 0.72620500075 0.875
 O4 O 0.94823499775 0.64879499925 0.875
 O4 O 0.80176500225 0.60120500075 0.875
 O4 O 0.80176500225 0.64879499925 0.875
 O4 O 0.94823499775 0.60120500075 0.875
 O5 O 0.7781475 0.5 0.8090699985
 O5 O 0.7781475 0.75 0.8090699985
 O5 O 0.9718525 0.5 0.9409300015
 O5 O 0.9718525 0.75 0.9409300015
 O5 O 0.9718525 0.5 0.8090699985
 O5 O 0.9718525 0.75 0.8090699985
 O5 O 0.7781475 0.5 0.9409300015
 O5 O 0.7781475 0.75 0.9409300015
 O5 O 0.9031475 0.625 0.8090699985
 O5 O 0.8468525 0.625 0.9409300015
 O5 O 0.8468525 0.625 0.8090699985
 O5 O 0.9031475 0.625 0.9409300015
 O6 O 0.7741599995 0.5236249995 0.875
 O6 O 0.9758400005 0.7263750005 0.875
 O6 O 0.9758400005 0.5236249995 0.875
 O6 O 0.7741599995 0.7263750005 0.875
 O6 O 0.8991599995 0.6486249995 0.875
 O6 O 0.8508400005 0.6013750005 0.875
 O6 O 0.8508400005 0.6486249995 0.875
 O6 O 0.8991599995 0.6013750005 0.875
 O7 O 0.7698449995000001 0.53517999875 0.79336500175
 O7 O 0.9801550005 0.71482000125 0.95663499825
 O7 O 0.9801550005 0.71482000125 0.79336500175
 O7 O 0.7698449995000001 0.53517999875 0.95663499825
 O7 O 0.9801550005 0.53517999875 0.95663499825
 O7 O 0.7698449995000001 0.71482000125 0.79336500175
 O7 O 0.7698449995000001 0.71482000125 0.95663499825
 O7 O 0.9801550005 0.53517999875 0.79336500175
 O7 O 0.8948449995 0.66017999875 0.79336500175
 O7 O 0.8551550004999999 0.58982000125 0.95663499825
 O7 O 0.8551550004999999 0.58982000125 0.79336500175
 O7 O 0.8948449995 0.66017999875 0.95663499825
 O7 O 0.8551550004999999 0.66017999875 0.95663499825
 O7 O 0.8948449995 0.58982000125 0.79336500175
 O7 O 0.8948449995 0.58982000125 0.95663499825
 O7 O 0.8551550004999999 0.66017999875 0.79336500175
 O8 O 0.8125 0.5625 0.75
 O8 O 0.8125 0.5625 1.0
 O8 O 0.9375 0.6875 0.75
 O8 O 0.9375 0.6875 1.0
 O8 O 0.9375 0.5625 0.75
 O8 O 0.9375 0.5625 1.0
 O8 O 0.8125 0.6875 0.75
 O8 O 0.8125 0.6875 1.0
 O9 O 0.78091249975 0.56469249725 0.75
 O9 O 0.78091249975 0.56469249725 1.0
 O9 O 0.96908750025 0.68530750275 0.75
 O9 O 0.96908750025 0.68530750275 1.0
 O9 O 0.96908750025 0.56469249725 0.75
 O9 O 0.96908750025 0.56469249725 1.0
 O9 O 0.78091249975 0.68530750275 0.75
 O9 O 0.78091249975 0.68530750275 1.0
 O9 O 0.90591249975 0.68969249725 0.75
 O9 O 0.90591249975 0.68969249725 1.0
 O9 O 0.84408750025 0.56030750275 0.75
 O9 O 0.84408750025 0.56030750275 1.0
 O9 O 0.84408750025 0.68969249725 0.75
 O9 O 0.84408750025 0.68969249725 1.0
 O9 O 0.90591249975 0.56030750275 0.75
 O9 O 0.90591249975 0.56030750275 1.0
 O10 O 0.75 0.5565750002500001 0.75
 O10 O 0.75 0.5565750002500001 1.0
 O10 O 1.0 0.5565750002500001 0.75
 O10 O 1.0 0.5565750002500001 1.0
 O10 O 0.75 0.6934249997499999 0.75
 O10 O 0.75 0.6934249997499999 1.0
 O10 O 1.0 0.6934249997499999 0.75
 O10 O 1.0 0.6934249997499999 1.0
 O10 O 0.875 0.6815750002500001 0.75
 O10 O 0.875 0.6815750002500001 1.0
 O10 O 0.875 0.5684249997499999 0.75
 O10 O 0.875 0.5684249997499999 1.0
 O2 O 0.7976175025000001 0.58963499975 0.70677249875
 O2 O 0.7976175025000001 0.58963499975 1.04322750125
 O2 O 0.9523824975 0.66036500025 0.70677249875
 O2 O 0.9523824975 0.66036500025 1.04322750125
 O2 O 0.9523824975 0.58963499975 0.70677249875
 O2 O 0.9523824975 0.58963499975 1.04322750125
 O2 O 0.7976175025000001 0.66036500025 0.70677249875
 O2 O 0.7976175025000001 0.66036500025 1.04322750125
 O2 O 0.9226175025 0.71463499975 0.70677249875
 O2 O 0.9226175025 0.71463499975 1.04322750125
 O2 O 0.8273824974999999 0.53536500025 0.70677249875
 O2 O 0.8273824974999999 0.53536500025 1.04322750125
 O2 O 0.8273824974999999 0.71463499975 0.70677249875
 O2 O 0.8273824974999999 0.71463499975 1.04322750125
 O2 O 0.9226175025 0.53536500025 0.70677249875
 O2 O 0.9226175025 0.53536500025 1.04322750125
 O7 O 0.7698449995000001 0.53517999875 0.70663499825
 O7 O 0.7698449995000001 0.53517999875 1.04336500175
 O7 O 0.9801550005 0.71482000125 0.70663499825
 O7 O 0.9801550005 0.71482000125 1.04336500175
 O7 O 0.9801550005 0.53517999875 0.70663499825
 O7 O 0.9801550005 0.53517999875 1.04336500175
 O7 O 0.7698449995000001 0.71482000125 0.70663499825
 O7 O 0.7698449995000001 0.71482000125 1.04336500175
 O7 O 0.8948449995 0.66017999875 0.70663499825
 O7 O 0.8948449995 0.66017999875 1.04336500175
 O7 O 0.8551550004999999 0.58982000125 0.70663499825
 O7 O 0.8551550004999999 0.58982000125 1.04336500175
 O7 O 0.8551550004999999 0.66017999875 0.70663499825
 O7 O 0.8551550004999999 0.66017999875 1.04336500175
 O7 O 0.8948449995 0.58982000125 0.70663499825
 O7 O 0.8948449995 0.58982000125 1.04336500175
 Si1 Si 0.0672350005 0.7716099992500001 0.8248350025
 Si1 Si 0.1827649995 0.9783900007499999 0.9251649975
 Si1 Si 0.1827649995 0.9783900007499999 0.8248350025
 Si1 Si 0.0672350005 0.7716099992500001 0.9251649975
 Si1 Si 0.1827649995 0.7716099992500001 0.9251649975
 Si1 Si 0.0672350005 0.9783900007499999 0.8248350025
 Si1 Si 0.0672350005 0.9783900007499999 0.9251649975
 Si1 Si 0.1827649995 0.7716099992500001 0.8248350025
 Si1 Si 0.1922350005 0.8966099992500001 0.8248350025
 Si1 Si 0.0577649995 0.8533900007499999 0.9251649975
 Si1 Si 0.0577649995 0.8533900007499999 0.8248350025
 Si1 Si 0.1922350005 0.8966099992500001 0.9251649975
 Si1 Si 0.0577649995 0.8966099992500001 0.9251649975
 Si1 Si 0.1922350005 0.8533900007499999 0.8248350025
 Si1 Si 0.1922350005 0.8533900007499999 0.9251649975
 Si1 Si 0.0577649995 0.8966099992500001 0.8248350025
 Si2 Si 0.03017999975 0.7715750002499999 0.824832499
 Si2 Si 0.21982000025 0.97842499975 0.925167501
 Si2 Si 0.21982000025 0.97842499975 0.824832499
 Si2 Si 0.03017999975 0.7715750002499999 0.925167501
 Si2 Si 0.21982000025 0.7715750002499999 0.925167501
 Si2 Si 0.03017999975 0.97842499975 0.824832499
 Si2 Si 0.03017999975 0.97842499975 0.925167501
 Si2 Si 0.21982000025 0.7715750002499999 0.824832499
 Si2 Si 0.15517999975 0.89657500025 0.824832499
 Si2 Si 0.09482000025 0.85342499975 0.925167501
 Si2 Si 0.09482000025 0.85342499975 0.824832499
 Si2 Si 0.15517999975 0.89657500025 0.925167501
 Si2 Si 0.09482000025 0.89657500025 0.925167501
 Si2 Si 0.15517999975 0.85342499975 0.824832499
 Si2 Si 0.15517999975 0.85342499975 0.925167501
 Si2 Si 0.09482000025 0.89657500025 0.824832499
 Si3 Si 0.047362499 0.8264449985 0.75
 Si3 Si 0.047362499 0.8264449985 1.0
 Si3 Si 0.202637501 0.9235550015 0.75
 Si3 Si 0.202637501 0.9235550015 1.0
 Si3 Si 0.202637501 0.8264449985 0.75
 Si3 Si 0.202637501 0.8264449985 1.0
 Si3 Si 0.047362499 0.9235550015 0.75
 Si3 Si 0.047362499 0.9235550015 1.0
 Si3 Si 0.172362499 0.9514449985 0.75
 Si3 Si 0.172362499 0.9514449985 1.0
 Si3 Si 0.077637501 0.7985550015 0.75
 Si3 Si 0.077637501 0.7985550015 1.0
 Si3 Si 0.077637501 0.9514449985 0.75
 Si3 Si 0.077637501 0.9514449985 1.0
 Si3 Si 0.172362499 0.7985550015 0.75
 Si3 Si 0.172362499 0.7985550015 1.0
 Si4 Si 0.01785499975 0.79804499825 0.75
 Si4 Si 0.01785499975 0.79804499825 1.0
 Si4 Si 0.23214500025 0.95195500175 0.75
 Si4 Si 0.23214500025 0.95195500175 1.0
 Si4 Si 0.23214500025 0.79804499825 0.75
 Si4 Si 0.23214500025 0.79804499825 1.0
 Si4 Si 0.01785499975 0.95195500175 0.75
 Si4 Si 0.01785499975 0.95195500175 1.0
 Si4 Si 0.14285499975 0.92304499825 0.75
 Si4 Si 0.14285499975 0.92304499825 1.0
 Si4 Si 0.10714500025 0.82695500175 0.75
 Si4 Si 0.10714500025 0.82695500175 1.0
 Si4 Si 0.10714500025 0.92304499825 0.75
 Si4 Si 0.10714500025 0.92304499825 1.0
 Si4 Si 0.14285499975 0.82695500175 0.75
 Si4 Si 0.14285499975 0.82695500175 1.0
 O1 O 0.04870250075 0.7775350007499999 0.82191000125
 O1 O 0.20129749925 0.97246499925 0.92808999875
 O1 O 0.20129749925 0.97246499925 0.82191000125
 O1 O 0.04870250075 0.7775350007499999 0.92808999875
 O1 O 0.20129749925 0.7775350007499999 0.92808999875
 O1 O 0.04870250075 0.97246499925 0.82191000125
 O1 O 0.04870250075 0.97246499925 0.92808999875
 O1 O 0.20129749925 0.7775350007499999 0.82191000125
 O1 O 0.17370250075 0.90253500075 0.82191000125
 O1 O 0.07629749925 0.8474649992500001 0.92808999875
 O1 O 0.07629749925 0.8474649992500001 0.82191000125
 O1 O 0.17370250075 0.90253500075 0.92808999875
 O1 O 0.07629749925 0.90253500075 0.92808999875
 O1 O 0.17370250075 0.8474649992500001 0.82191000125
 O1 O 0.17370250075 0.8474649992500001 0.92808999875
 O1 O 0.07629749925 0.90253500075 0.82191000125
 O2 O 0.0773824975 0.78536500025 0.7932275012500001
 O2 O 0.1726175025 0.96463499975 0.95677249875
 O2 O 0.1726175025 0.96463499975 0.7932275012500001
 O2 O 0.0773824975 0.78536500025 0.95677249875
 O2 O 0.1726175025 0.78536500025 0.95677249875
 O2 O 0.0773824975 0.96463499975 0.7932275012500001
 O2 O 0.0773824975 0.96463499975 0.95677249875
 O2 O 0.1726175025 0.78536500025 0.7932275012500001
 O2 O 0.2023824975 0.91036500025 0.7932275012500001
 O2 O 0.0476175025 0.83963499975 0.95677249875
 O2 O 0.0476175025 0.83963499975 0.7932275012500001
 O2 O 0.2023824975 0.91036500025 0.95677249875
 O2 O 0.0476175025 0.91036500025 0.95677249875
 O2 O 0.2023824975 0.83963499975 0.7932275012500001
 O2 O 0.2023824975 0.83963499975 0.95677249875
 O2 O 0.0476175025 0.91036500025 0.7932275012500001
 O3 O 0.06933250275 0.75 0.80936750025
 O3 O 0.06933250275 1.0 0.80936750025
 O3 O 0.18066749725 0.75 0.94063249975
 O3 O 0.18066749725 1.0 0.94063249975
 O3 O 0.18066749725 0.75 0.80936750025
 O3 O 0.18066749725 1.0 0.80936750025
 O3 O 0.06933250275 0.75 0.94063249975
 O3 O 0.06933250275 1.0 0.94063249975
 O3 O 0.19433250275 0.875 0.80936750025
 O3 O 0.05566749725 0.875 0.94063249975
 O3 O 0.05566749725 0.875 0.80936750025
 O3 O 0.19433250275 0.875 0.94063249975
 O4 O 0.07323499775 0.77379499925 0.875
 O4 O 0.17676500225 0.97620500075 0.875
 O4 O 0.17676500225 0.77379499925 0.875
 O4 O 0.07323499775 0.97620500075 0.875
 O4 O 0.19823499775 0.89879499925 0.875
 O4 O 0.05176500225 0.85120500075 0.875
 O4 O 0.05176500225 0.89879499925 0.875
 O4 O 0.19823499775 0.85120500075 0.875
 O5 O 0.0281475 0.75 0.8090699985
 O5 O 0.0281475 1.0 0.8090699985
 O5 O 0.2218525 0.75 0.9409300015
 O5 O 0.2218525 1.0 0.9409300015
 O5 O 0.2218525 0.75 0.8090699985
 O5 O 0.2218525 1.0 0.8090699985
 O5 O 0.0281475 0.75 0.9409300015
 O5 O 0.0281475 1.0 0.9409300015
 O5 O 0.1531475 0.875 0.8090699985
 O5 O 0.0968525 0.875 0.9409300015
 O5 O 0.0968525 0.875 0.8090699985
 O5 O 0.1531475 0.875 0.9409300015
 O6 O 0.0241599995 0.7736249995 0.875
 O6 O 0.2258400005 0.9763750005 0.875
 O6 O 0.2258400005 0.7736249995 0.875
 O6 O 0.0241599995 0.9763750005 0.875
 O6 O 0.1491599995 0.8986249995 0.875
 O6 O 0.1008400005 0.8513750005 0.875
 O6 O 0.1008400005 0.8986249995 0.875
 O6 O 0.1491599995 0.8513750005 0.875
 O7 O 0.0198449995 0.78517999875 0.79336500175
 O7 O 0.2301550005 0.96482000125 0.95663499825
 O7 O 0.2301550005 0.96482000125 0.79336500175
 O7 O 0.0198449995 0.78517999875 0.95663499825
 O7 O 0.2301550005 0.78517999875 0.95663499825
 O7 O 0.0198449995 0.96482000125 0.79336500175
 O7 O 0.0198449995 0.96482000125 0.95663499825
 O7 O 0.2301550005 0.78517999875 0.79336500175
 O7 O 0.1448449995 0.91017999875 0.79336500175
 O7 O 0.1051550005 0.83982000125 0.95663499825
 O7 O 0.1051550005 0.83982000125 0.79336500175
 O7 O 0.1448449995 0.91017999875 0.95663499825
 O7 O 0.1051550005 0.91017999875 0.95663499825
 O7 O 0.1448449995 0.83982000125 0.79336500175
 O7 O 0.1448449995 0.83982000125 0.95663499825
 O7 O 0.1051550005 0.91017999875 0.79336500175
 O8 O 0.0625 0.8125 0.75
 O8 O 0.0625 0.8125 1.0
 O8 O 0.1875 0.9375 0.75
 O8 O 0.1875 0.9375 1.0
 O8 O 0.1875 0.8125 0.75
 O8 O 0.1875 0.8125 1.0
 O8 O 0.0625 0.9375 0.75
 O8 O 0.0625 0.9375 1.0
 O9 O 0.03091249975 0.81469249725 0.75
 O9 O 0.03091249975 0.81469249725 1.0
 O9 O 0.21908750025 0.93530750275 0.75
 O9 O 0.21908750025 0.93530750275 1.0
 O9 O 0.21908750025 0.81469249725 0.75
 O9 O 0.21908750025 0.81469249725 1.0
 O9 O 0.03091249975 0.93530750275 0.75
 O9 O 0.03091249975 0.93530750275 1.0
 O9 O 0.15591249975 0.93969249725 0.75
 O9 O 0.15591249975 0.93969249725 1.0
 O9 O 0.09408750025 0.81030750275 0.75
 O9 O 0.09408750025 0.81030750275 1.0
 O9 O 0.09408750025 0.93969249725 0.75
 O9 O 0.09408750025 0.93969249725 1.0
 O9 O 0.15591249975 0.81030750275 0.75
 O9 O 0.15591249975 0.81030750275 1.0
 O10 O 0.0 0.8065750002500001 0.75
 O10 O 0.0 0.8065750002500001 1.0
 O10 O 0.25 0.8065750002500001 0.75
 O10 O 0.25 0.8065750002500001 1.0
 O10 O 0.0 0.9434249997499999 0.75
 O10 O 0.0 0.9434249997499999 1.0
 O10 O 0.25 0.9434249997499999 0.75
 O10 O 0.25 0.9434249997499999 1.0
 O10 O 0.125 0.9315750002500001 0.75
 O10 O 0.125 0.9315750002500001 1.0
 O10 O 0.125 0.8184249997499999 0.75
 O10 O 0.125 0.8184249997499999 1.0
 O2 O 0.0476175025 0.83963499975 0.70677249875
 O2 O 0.0476175025 0.83963499975 1.04322750125
 O2 O 0.2023824975 0.91036500025 0.70677249875
 O2 O 0.2023824975 0.91036500025 1.04322750125
 O2 O 0.2023824975 0.83963499975 0.70677249875
 O2 O 0.2023824975 0.83963499975 1.04322750125
 O2 O 0.0476175025 0.91036500025 0.70677249875
 O2 O 0.0476175025 0.91036500025 1.04322750125
 O2 O 0.1726175025 0.96463499975 0.70677249875
 O2 O 0.1726175025 0.96463499975 1.04322750125
 O2 O 0.0773824975 0.78536500025 0.70677249875
 O2 O 0.0773824975 0.78536500025 1.04322750125
 O2 O 0.0773824975 0.96463499975 0.70677249875
 O2 O 0.0773824975 0.96463499975 1.04322750125
 O2 O 0.1726175025 0.78536500025 0.70677249875
 O2 O 0.1726175025 0.78536500025 1.04322750125
 O7 O 0.0198449995 0.78517999875 0.70663499825
 O7 O 0.0198449995 0.78517999875 1.04336500175
 O7 O 0.2301550005 0.96482000125 0.70663499825
 O7 O 0.2301550005 0.96482000125 1.04336500175
 O7 O 0.2301550005 0.78517999875 0.70663499825
 O7 O 0.2301550005 0.78517999875 1.04336500175
 O7 O 0.0198449995 0.96482000125 0.70663499825
 O7 O 0.0198449995 0.96482000125 1.04336500175
 O7 O 0.1448449995 0.91017999875 0.70663499825
 O7 O 0.1448449995 0.91017999875 1.04336500175
 O7 O 0.1051550005 0.83982000125 0.70663499825
 O7 O 0.1051550005 0.83982000125 1.04336500175
 O7 O 0.1051550005 0.91017999875 0.70663499825
 O7 O 0.1051550005 0.91017999875 1.04336500175
 O7 O 0.1448449995 0.83982000125 0.70663499825
 O7 O 0.1448449995 0.83982000125 1.04336500175
 Si1 Si 0.3172350005 0.7716099992500001 0.8248350025
 Si1 Si 0.4327649995 0.9783900007499999 0.9251649975
 Si1 Si 0.4327649995 0.9783900007499999 0.8248350025
 Si1 Si 0.3172350005 0.7716099992500001 0.9251649975
 Si1 Si 0.4327649995 0.7716099992500001 0.9251649975
 Si1 Si 0.3172350005 0.9783900007499999 0.8248350025
 Si1 Si 0.3172350005 0.9783900007499999 0.9251649975
 Si1 Si 0.4327649995 0.7716099992500001 0.8248350025
 Si1 Si 0.4422350005 0.8966099992500001 0.8248350025
 Si1 Si 0.3077649995 0.8533900007499999 0.9251649975
 Si1 Si 0.3077649995 0.8533900007499999 0.8248350025
 Si1 Si 0.4422350005 0.8966099992500001 0.9251649975
 Si1 Si 0.3077649995 0.8966099992500001 0.9251649975
 Si1 Si 0.4422350005 0.8533900007499999 0.8248350025
 Si1 Si 0.4422350005 0.8533900007499999 0.9251649975
 Si1 Si 0.3077649995 0.8966099992500001 0.8248350025
 Si2 Si 0.28017999975 0.7715750002499999 0.824832499
 Si2 Si 0.46982000025000004 0.97842499975 0.925167501
 Si2 Si 0.46982000025000004 0.97842499975 0.824832499
 Si2 Si 0.28017999975 0.7715750002499999 0.925167501
 Si2 Si 0.46982000025000004 0.7715750002499999 0.925167501
 Si2 Si 0.28017999975 0.97842499975 0.824832499
 Si2 Si 0.28017999975 0.97842499975 0.925167501
 Si2 Si 0.46982000025000004 0.7715750002499999 0.824832499
 Si2 Si 0.40517999974999996 0.89657500025 0.824832499
 Si2 Si 0.34482000025 0.85342499975 0.925167501
 Si2 Si 0.34482000025 0.85342499975 0.824832499
 Si2 Si 0.40517999974999996 0.89657500025 0.925167501
 Si2 Si 0.34482000025 0.89657500025 0.925167501
 Si2 Si 0.40517999974999996 0.85342499975 0.824832499
 Si2 Si 0.40517999974999996 0.85342499975 0.925167501
 Si2 Si 0.34482000025 0.89657500025 0.824832499
 Si3 Si 0.297362499 0.8264449985 0.75
 Si3 Si 0.297362499 0.8264449985 1.0
 Si3 Si 0.452637501 0.9235550015 0.75
 Si3 Si 0.452637501 0.9235550015 1.0
 Si3 Si 0.452637501 0.8264449985 0.75
 Si3 Si 0.452637501 0.8264449985 1.0
 Si3 Si 0.297362499 0.9235550015 0.75
 Si3 Si 0.297362499 0.9235550015 1.0
 Si3 Si 0.422362499 0.9514449985 0.75
 Si3 Si 0.422362499 0.9514449985 1.0
 Si3 Si 0.327637501 0.7985550015 0.75
 Si3 Si 0.327637501 0.7985550015 1.0
 Si3 Si 0.327637501 0.9514449985 0.75
 Si3 Si 0.327637501 0.9514449985 1.0
 Si3 Si 0.422362499 0.7985550015 0.75
 Si3 Si 0.422362499 0.7985550015 1.0
 Si4 Si 0.26785499975 0.79804499825 0.75
 Si4 Si 0.26785499975 0.79804499825 1.0
 Si4 Si 0.48214500025 0.95195500175 0.75
 Si4 Si 0.48214500025 0.95195500175 1.0
 Si4 Si 0.48214500025 0.79804499825 0.75
 Si4 Si 0.48214500025 0.79804499825 1.0
 Si4 Si 0.26785499975 0.95195500175 0.75
 Si4 Si 0.26785499975 0.95195500175 1.0
 Si4 Si 0.39285499975 0.92304499825 0.75
 Si4 Si 0.39285499975 0.92304499825 1.0
 Si4 Si 0.35714500025 0.82695500175 0.75
 Si4 Si 0.35714500025 0.82695500175 1.0
 Si4 Si 0.35714500025 0.92304499825 0.75
 Si4 Si 0.35714500025 0.92304499825 1.0
 Si4 Si 0.39285499975 0.82695500175 0.75
 Si4 Si 0.39285499975 0.82695500175 1.0
 O1 O 0.29870250075 0.7775350007499999 0.82191000125
 O1 O 0.45129749925 0.97246499925 0.92808999875
 O1 O 0.45129749925 0.97246499925 0.82191000125
 O1 O 0.29870250075 0.7775350007499999 0.92808999875
 O1 O 0.45129749925 0.7775350007499999 0.92808999875
 O1 O 0.29870250075 0.97246499925 0.82191000125
 O1 O 0.29870250075 0.97246499925 0.92808999875
 O1 O 0.45129749925 0.7775350007499999 0.82191000125
 O1 O 0.42370250075 0.90253500075 0.82191000125
 O1 O 0.32629749925 0.8474649992500001 0.92808999875
 O1 O 0.32629749925 0.8474649992500001 0.82191000125
 O1 O 0.42370250075 0.90253500075 0.92808999875
 O1 O 0.32629749925 0.90253500075 0.92808999875
 O1 O 0.42370250075 0.8474649992500001 0.82191000125
 O1 O 0.42370250075 0.8474649992500001 0.92808999875
 O1 O 0.32629749925 0.90253500075 0.82191000125
 O2 O 0.3273824975 0.78536500025 0.7932275012500001
 O2 O 0.42261750249999996 0.96463499975 0.95677249875
 O2 O 0.42261750249999996 0.96463499975 0.7932275012500001
 O2 O 0.3273824975 0.78536500025 0.95677249875
 O2 O 0.42261750249999996 0.78536500025 0.95677249875
 O2 O 0.3273824975 0.96463499975 0.7932275012500001
 O2 O 0.3273824975 0.96463499975 0.95677249875
 O2 O 0.42261750249999996 0.78536500025 0.7932275012500001
 O2 O 0.45238249750000004 0.91036500025 0.7932275012500001
 O2 O 0.2976175025 0.83963499975 0.95677249875
 O2 O 0.2976175025 0.83963499975 0.7932275012500001
 O2 O 0.45238249750000004 0.91036500025 0.95677249875
 O2 O 0.2976175025 0.91036500025 0.95677249875
 O2 O 0.45238249750000004 0.83963499975 0.7932275012500001
 O2 O 0.45238249750000004 0.83963499975 0.95677249875
 O2 O 0.2976175025 0.91036500025 0.7932275012500001
 O3 O 0.31933250275 0.75 0.80936750025
 O3 O 0.31933250275 1.0 0.80936750025
 O3 O 0.43066749725 0.75 0.94063249975
 O3 O 0.43066749725 1.0 0.94063249975
 O3 O 0.43066749725 0.75 0.80936750025
 O3 O 0.43066749725 1.0 0.80936750025
 O3 O 0.31933250275 0.75 0.94063249975
 O3 O 0.31933250275 1.0 0.94063249975
 O3 O 0.44433250275 0.875 0.80936750025
 O3 O 0.30566749725 0.875 0.94063249975
 O3 O 0.30566749725 0.875 0.80936750025
 O3 O 0.44433250275 0.875 0.94063249975
 O4 O 0.32323499775 0.77379499925 0.875
 O4 O 0.42676500225 0.97620500075 0.875
 O4 O 0.42676500225 0.77379499925 0.875
 O4 O 0.32323499775 0.97620500075 0.875
 O4 O 0.44823499775 0.89879499925 0.875
 O4 O 0.30176500225 0.85120500075 0.875
 O4 O 0.30176500225 0.89879499925 0.875
 O4 O 0.44823499775 0.85120500075 0.875
 O5 O 0.2781475 0.75 0.8090699985
 O5 O 0.2781475 1.0 0.8090699985
 O5 O 0.4718525 0.75 0.9409300015
 O5 O 0.4718525 1.0 0.9409300015
 O5 O 0.4718525 0.75 0.8090699985
 O5 O 0.4718525 1.0 0.8090699985
 O5 O 0.2781475 0.75 0.9409300015
 O5 O 0.2781475 1.0 0.9409300015
 O5 O 0.4031475 0.875 0.8090699985
 O5 O 0.3468525 0.875 0.9409300015
 O5 O 0.3468525 0.875 0.8090699985
 O5 O 0.4031475 0.875 0.9409300015
 O6 O 0.27415999950000003 0.7736249995 0.875
 O6 O 0.47584000049999997 0.9763750005 0.875
 O6 O 0.47584000049999997 0.7736249995 0.875
 O6 O 0.27415999950000003 0.9763750005 0.875
 O6 O 0.39915999950000003 0.8986249995 0.875
 O6 O 0.35084000049999997 0.8513750005 0.875
 O6 O 0.35084000049999997 0.8986249995 0.875
 O6 O 0.39915999950000003 0.8513750005 0.875
 O7 O 0.2698449995 0.78517999875 0.79336500175
 O7 O 0.48015500050000004 0.96482000125 0.95663499825
 O7 O 0.48015500050000004 0.96482000125 0.79336500175
 O7 O 0.2698449995 0.78517999875 0.95663499825
 O7 O 0.48015500050000004 0.78517999875 0.95663499825
 O7 O 0.2698449995 0.96482000125 0.79336500175
 O7 O 0.2698449995 0.96482000125 0.95663499825
 O7 O 0.48015500050000004 0.78517999875 0.79336500175
 O7 O 0.39484499949999996 0.91017999875 0.79336500175
 O7 O 0.3551550005 0.83982000125 0.95663499825
 O7 O 0.3551550005 0.83982000125 0.79336500175
 O7 O 0.39484499949999996 0.91017999875 0.95663499825
 O7 O 0.3551550005 0.91017999875 0.95663499825
 O7 O 0.39484499949999996 0.83982000125 0.79336500175
 O7 O 0.39484499949999996 0.83982000125 0.95663499825
 O7 O 0.3551550005 0.91017999875 0.79336500175
 O8 O 0.3125 0.8125 0.75
 O8 O 0.3125 0.8125 1.0
 O8 O 0.4375 0.9375 0.75
 O8 O 0.4375 0.9375 1.0
 O8 O 0.4375 0.8125 0.75
 O8 O 0.4375 0.8125 1.0
 O8 O 0.3125 0.9375 0.75
 O8 O 0.3125 0.9375 1.0
 O9 O 0.28091249975 0.81469249725 0.75
 O9 O 0.28091249975 0.81469249725 1.0
 O9 O 0.46908750025 0.93530750275 0.75
 O9 O 0.46908750025 0.93530750275 1.0
 O9 O 0.46908750025 0.81469249725 0.75
 O9 O 0.46908750025 0.81469249725 1.0
 O9 O 0.28091249975 0.93530750275 0.75
 O9 O 0.28091249975 0.93530750275 1.0
 O9 O 0.40591249975 0.93969249725 0.75
 O9 O 0.40591249975 0.93969249725 1.0
 O9 O 0.34408750025 0.81030750275 0.75
 O9 O 0.34408750025 0.81030750275 1.0
 O9 O 0.34408750025 0.93969249725 0.75
 O9 O 0.34408750025 0.93969249725 1.0
 O9 O 0.40591249975 0.81030750275 0.75
 O9 O 0.40591249975 0.81030750275 1.0
 O10 O 0.25 0.8065750002500001 0.75
 O10 O 0.25 0.8065750002500001 1.0
 O10 O 0.5 0.8065750002500001 0.75
 O10 O 0.5 0.8065750002500001 1.0
 O10 O 0.25 0.9434249997499999 0.75
 O10 O 0.25 0.9434249997499999 1.0
 O10 O 0.5 0.9434249997499999 0.75
 O10 O 0.5 0.9434249997499999 1.0
 O10 O 0.375 0.9315750002500001 0.75
 O10 O 0.375 0.9315750002500001 1.0
 O10 O 0.375 0.8184249997499999 0.75
 O10 O 0.375 0.8184249997499999 1.0
 O2 O 0.2976175025 0.83963499975 0.70677249875
 O2 O 0.2976175025 0.83963499975 1.04322750125
 O2 O 0.45238249750000004 0.91036500025 0.70677249875
 O2 O 0.45238249750000004 0.91036500025 1.04322750125
 O2 O 0.45238249750000004 0.83963499975 0.70677249875
 O2 O 0.45238249750000004 0.83963499975 1.04322750125
 O2 O 0.2976175025 0.91036500025 0.70677249875
 O2 O 0.2976175025 0.91036500025 1.04322750125
 O2 O 0.42261750249999996 0.96463499975 0.70677249875
 O2 O 0.42261750249999996 0.96463499975 1.04322750125
 O2 O 0.3273824975 0.78536500025 0.70677249875
 O2 O 0.3273824975 0.78536500025 1.04322750125
 O2 O 0.3273824975 0.96463499975 0.70677249875
 O2 O 0.3273824975 0.96463499975 1.04322750125
 O2 O 0.42261750249999996 0.78536500025 0.70677249875
 O2 O 0.42261750249999996 0.78536500025 1.04322750125
 O7 O 0.2698449995 0.78517999875 0.70663499825
 O7 O 0.2698449995 0.78517999875 1.04336500175
 O7 O 0.48015500050000004 0.96482000125 0.70663499825
 O7 O 0.48015500050000004 0.96482000125 1.04336500175
 O7 O 0.48015500050000004 0.78517999875 0.70663499825
 O7 O 0.48015500050000004 0.78517999875 1.04336500175
 O7 O 0.2698449995 0.96482000125 0.70663499825
 O7 O 0.2698449995 0.96482000125 1.04336500175
 O7 O 0.39484499949999996 0.91017999875 0.70663499825
 O7 O 0.39484499949999996 0.91017999875 1.04336500175
 O7 O 0.3551550005 0.83982000125 0.70663499825
 O7 O 0.3551550005 0.83982000125 1.04336500175
 O7 O 0.3551550005 0.91017999875 0.70663499825
 O7 O 0.3551550005 0.91017999875 1.04336500175
 O7 O 0.39484499949999996 0.83982000125 0.70663499825
 O7 O 0.39484499949999996 0.83982000125 1.04336500175
 Si1 Si 0.5672350005 0.7716099992500001 0.8248350025
 Si1 Si 0.6827649995 0.9783900007499999 0.9251649975
 Si1 Si 0.6827649995 0.9783900007499999 0.8248350025
 Si1 Si 0.5672350005 0.7716099992500001 0.9251649975
 Si1 Si 0.6827649995 0.7716099992500001 0.9251649975
 Si1 Si 0.5672350005 0.9783900007499999 0.8248350025
 Si1 Si 0.5672350005 0.9783900007499999 0.9251649975
 Si1 Si 0.6827649995 0.7716099992500001 0.8248350025
 Si1 Si 0.6922350005 0.8966099992500001 0.8248350025
 Si1 Si 0.5577649995 0.8533900007499999 0.9251649975
 Si1 Si 0.5577649995 0.8533900007499999 0.8248350025
 Si1 Si 0.6922350005 0.8966099992500001 0.9251649975
 Si1 Si 0.5577649995 0.8966099992500001 0.9251649975
 Si1 Si 0.6922350005 0.8533900007499999 0.8248350025
 Si1 Si 0.6922350005 0.8533900007499999 0.9251649975
 Si1 Si 0.5577649995 0.8966099992500001 0.8248350025
 Si2 Si 0.5301799997500001 0.7715750002499999 0.824832499
 Si2 Si 0.71982000025 0.97842499975 0.925167501
 Si2 Si 0.71982000025 0.97842499975 0.824832499
 Si2 Si 0.5301799997500001 0.7715750002499999 0.925167501
 Si2 Si 0.71982000025 0.7715750002499999 0.925167501
 Si2 Si 0.5301799997500001 0.97842499975 0.824832499
 Si2 Si 0.5301799997500001 0.97842499975 0.925167501
 Si2 Si 0.71982000025 0.7715750002499999 0.824832499
 Si2 Si 0.65517999975 0.89657500025 0.824832499
 Si2 Si 0.5948200002499999 0.85342499975 0.925167501
 Si2 Si 0.5948200002499999 0.85342499975 0.824832499
 Si2 Si 0.65517999975 0.89657500025 0.925167501
 Si2 Si 0.5948200002499999 0.89657500025 0.925167501
 Si2 Si 0.65517999975 0.85342499975 0.824832499
 Si2 Si 0.65517999975 0.85342499975 0.925167501
 Si2 Si 0.5948200002499999 0.89657500025 0.824832499
 Si3 Si 0.547362499 0.8264449985 0.75
 Si3 Si 0.547362499 0.8264449985 1.0
 Si3 Si 0.702637501 0.9235550015 0.75
 Si3 Si 0.702637501 0.9235550015 1.0
 Si3 Si 0.702637501 0.8264449985 0.75
 Si3 Si 0.702637501 0.8264449985 1.0
 Si3 Si 0.547362499 0.9235550015 0.75
 Si3 Si 0.547362499 0.9235550015 1.0
 Si3 Si 0.672362499 0.9514449985 0.75
 Si3 Si 0.672362499 0.9514449985 1.0
 Si3 Si 0.577637501 0.7985550015 0.75
 Si3 Si 0.577637501 0.7985550015 1.0
 Si3 Si 0.577637501 0.9514449985 0.75
 Si3 Si 0.577637501 0.9514449985 1.0
 Si3 Si 0.672362499 0.7985550015 0.75
 Si3 Si 0.672362499 0.7985550015 1.0
 Si4 Si 0.5178549997499999 0.79804499825 0.75
 Si4 Si 0.5178549997499999 0.79804499825 1.0
 Si4 Si 0.7321450002500001 0.95195500175 0.75
 Si4 Si 0.7321450002500001 0.95195500175 1.0
 Si4 Si 0.7321450002500001 0.79804499825 0.75
 Si4 Si 0.7321450002500001 0.79804499825 1.0
 Si4 Si 0.5178549997499999 0.95195500175 0.75
 Si4 Si 0.5178549997499999 0.95195500175 1.0
 Si4 Si 0.6428549997499999 0.92304499825 0.75
 Si4 Si 0.6428549997499999 0.92304499825 1.0
 Si4 Si 0.6071450002500001 0.82695500175 0.75
 Si4 Si 0.6071450002500001 0.82695500175 1.0
 Si4 Si 0.6071450002500001 0.92304499825 0.75
 Si4 Si 0.6071450002500001 0.92304499825 1.0
 Si4 Si 0.6428549997499999 0.82695500175 0.75
 Si4 Si 0.6428549997499999 0.82695500175 1.0
 O1 O 0.5487025007499999 0.7775350007499999 0.82191000125
 O1 O 0.7012974992500001 0.97246499925 0.92808999875
 O1 O 0.7012974992500001 0.97246499925 0.82191000125
 O1 O 0.5487025007499999 0.7775350007499999 0.92808999875
 O1 O 0.7012974992500001 0.7775350007499999 0.92808999875
 O1 O 0.5487025007499999 0.97246499925 0.82191000125
 O1 O 0.5487025007499999 0.97246499925 0.92808999875
 O1 O 0.7012974992500001 0.7775350007499999 0.82191000125
 O1 O 0.6737025007499999 0.90253500075 0.82191000125
 O1 O 0.5762974992500001 0.8474649992500001 0.92808999875
 O1 O 0.5762974992500001 0.8474649992500001 0.82191000125
 O1 O 0.6737025007499999 0.90253500075 0.92808999875
 O1 O 0.5762974992500001 0.90253500075 0.92808999875
 O1 O 0.6737025007499999 0.8474649992500001 0.82191000125
 O1 O 0.6737025007499999 0.8474649992500001 0.92808999875
 O1 O 0.5762974992500001 0.90253500075 0.82191000125
 O2 O 0.5773824974999999 0.78536500025 0.7932275012500001
 O2 O 0.6726175025 0.96463499975 0.95677249875
 O2 O 0.6726175025 0.96463499975 0.7932275012500001
 O2 O 0.5773824974999999 0.78536500025 0.95677249875
 O2 O 0.6726175025 0.78536500025 0.95677249875
 O2 O 0.5773824974999999 0.96463499975 0.7932275012500001
 O2 O 0.5773824974999999 0.96463499975 0.95677249875
 O2 O 0.6726175025 0.78536500025 0.7932275012500001
 O2 O 0.7023824975 0.91036500025 0.7932275012500001
 O2 O 0.5476175025000001 0.83963499975 0.95677249875
 O2 O 0.5476175025000001 0.83963499975 0.7932275012500001
 O2 O 0.7023824975 0.91036500025 0.95677249875
 O2 O 0.5476175025000001 0.91036500025 0.95677249875
 O2 O 0.7023824975 0.83963499975 0.7932275012500001
 O2 O 0.7023824975 0.83963499975 0.95677249875
 O2 O 0.5476175025000001 0.91036500025 0.7932275012500001
 O3 O 0.56933250275 0.75 0.80936750025
 O3 O 0.56933250275 1.0 0.80936750025
 O3 O 0.68066749725 0.75 0.94063249975
 O3 O 0.68066749725 1.0 0.94063249975
 O3 O 0.68066749725 0.75 0.80936750025
 O3 O 0.68066749725 1.0 0.80936750025
 O3 O 0.56933250275 0.75 0.94063249975
 O3 O 0.56933250275 1.0 0.94063249975
 O3 O 0.69433250275 0.875 0.80936750025
 O3 O 0.55566749725 0.875 0.94063249975
 O3 O 0.55566749725 0.875 0.80936750025
 O3 O 0.69433250275 0.875 0.94063249975
 O4 O 0.57323499775 0.77379499925 0.875
 O4 O 0.67676500225 0.97620500075 0.875
 O4 O 0.67676500225 0.77379499925 0.875
 O4 O 0.57323499775 0.97620500075 0.875
 O4 O 0.69823499775 0.89879499925 0.875
 O4 O 0.55176500225 0.85120500075 0.875
 O4 O 0.55176500225 0.89879499925 0.875
 O4 O 0.69823499775 0.85120500075 0.875
 O5 O 0.5281475 0.75 0.8090699985
 O5 O 0.5281475 1.0 0.8090699985
 O5 O 0.7218525 0.75 0.9409300015
 O5 O 0.7218525 1.0 0.9409300015
 O5 O 0.7218525 0.75 0.8090699985
 O5 O 0.7218525 1.0 0.8090699985
 O5 O 0.5281475 0.75 0.9409300015
 O5 O 0.5281475 1.0 0.9409300015
 O5 O 0.6531475 0.875 0.8090699985
 O5 O 0.5968525 0.875 0.9409300015
 O5 O 0.5968525 0.875 0.8090699985
 O5 O 0.6531475 0.875 0.9409300015
 O6 O 0.5241599995 0.7736249995 0.875
 O6 O 0.7258400005 0.9763750005 0.875
 O6 O 0.7258400005 0.7736249995 0.875
 O6 O 0.5241599995 0.9763750005 0.875
 O6 O 0.6491599995 0.8986249995 0.875
 O6 O 0.6008400005 0.8513750005 0.875
 O6 O 0.6008400005 0.8986249995 0.875
 O6 O 0.6491599995 0.8513750005 0.875
 O7 O 0.5198449995000001 0.78517999875 0.79336500175
 O7 O 0.7301550005 0.96482000125 0.95663499825
 O7 O 0.7301550005 0.96482000125 0.79336500175
 O7 O 0.5198449995000001 0.78517999875 0.95663499825
 O7 O 0.7301550005 0.78517999875 0.95663499825
 O7 O 0.5198449995000001 0.96482000125 0.79336500175
 O7 O 0.5198449995000001 0.96482000125 0.95663499825
 O7 O 0.7301550005 0.78517999875 0.79336500175
 O7 O 0.6448449995 0.91017999875 0.79336500175
 O7 O 0.6051550004999999 0.83982000125 0.95663499825
 O7 O 0.6051550004999999 0.83982000125 0.79336500175
 O7 O 0.6448449995 0.91017999875 0.95663499825
 O7 O 0.6051550004999999 0.91017999875 0.95663499825
 O7 O 0.6448449995 0.83982000125 0.79336500175
 O7 O 0.6448449995 0.83982000125 0.95663499825
 O7 O 0.6051550004999999 0.91017999875 0.79336500175
 O8 O 0.5625 0.8125 0.75
 O8 O 0.5625 0.8125 1.0
 O8 O 0.6875 0.9375 0.75
 O8 O 0.6875 0.9375 1.0
 O8 O 0.6875 0.8125 0.75
 O8 O 0.6875 0.8125 1.0
 O8 O 0.5625 0.9375 0.75
 O8 O 0.5625 0.9375 1.0
 O9 O 0.53091249975 0.81469249725 0.75
 O9 O 0.53091249975 0.81469249725 1.0
 O9 O 0.71908750025 0.93530750275 0.75
 O9 O 0.71908750025 0.93530750275 1.0
 O9 O 0.71908750025 0.81469249725 0.75
 O9 O 0.71908750025 0.81469249725 1.0
 O9 O 0.53091249975 0.93530750275 0.75
 O9 O 0.53091249975 0.93530750275 1.0
 O9 O 0.65591249975 0.93969249725 0.75
 O9 O 0.65591249975 0.93969249725 1.0
 O9 O 0.59408750025 0.81030750275 0.75
 O9 O 0.59408750025 0.81030750275 1.0
 O9 O 0.59408750025 0.93969249725 0.75
 O9 O 0.59408750025 0.93969249725 1.0
 O9 O 0.65591249975 0.81030750275 0.75
 O9 O 0.65591249975 0.81030750275 1.0
 O10 O 0.5 0.8065750002500001 0.75
 O10 O 0.5 0.8065750002500001 1.0
 O10 O 0.75 0.8065750002500001 0.75
 O10 O 0.75 0.8065750002500001 1.0
 O10 O 0.5 0.9434249997499999 0.75
 O10 O 0.5 0.9434249997499999 1.0
 O10 O 0.75 0.9434249997499999 0.75
 O10 O 0.75 0.9434249997499999 1.0
 O10 O 0.625 0.9315750002500001 0.75
 O10 O 0.625 0.9315750002500001 1.0
 O10 O 0.625 0.8184249997499999 0.75
 O10 O 0.625 0.8184249997499999 1.0
 O2 O 0.5476175025000001 0.83963499975 0.70677249875
 O2 O 0.5476175025000001 0.83963499975 1.04322750125
 O2 O 0.7023824975 0.91036500025 0.70677249875
 O2 O 0.7023824975 0.91036500025 1.04322750125
 O2 O 0.7023824975 0.83963499975 0.70677249875
 O2 O 0.7023824975 0.83963499975 1.04322750125
 O2 O 0.5476175025000001 0.91036500025 0.70677249875
 O2 O 0.5476175025000001 0.91036500025 1.04322750125
 O2 O 0.6726175025 0.96463499975 0.70677249875
 O2 O 0.6726175025 0.96463499975 1.04322750125
 O2 O 0.5773824974999999 0.78536500025 0.70677249875
 O2 O 0.5773824974999999 0.78536500025 1.04322750125
 O2 O 0.5773824974999999 0.96463499975 0.70677249875
 O2 O 0.5773824974999999 0.96463499975 1.04322750125
 O2 O 0.6726175025 0.78536500025 0.70677249875
 O2 O 0.6726175025 0.78536500025 1.04322750125
 O7 O 0.5198449995000001 0.78517999875 0.70663499825
 O7 O 0.5198449995000001 0.78517999875 1.04336500175
 O7 O 0.7301550005 0.96482000125 0.70663499825
 O7 O 0.7301550005 0.96482000125 1.04336500175
 O7 O 0.7301550005 0.78517999875 0.70663499825
 O7 O 0.7301550005 0.78517999875 1.04336500175
 O7 O 0.5198449995000001 0.96482000125 0.70663499825
 O7 O 0.5198449995000001 0.96482000125 1.04336500175
 O7 O 0.6448449995 0.91017999875 0.70663499825
 O7 O 0.6448449995 0.91017999875 1.04336500175
 O7 O 0.6051550004999999 0.83982000125 0.70663499825
 O7 O 0.6051550004999999 0.83982000125 1.04336500175
 O7 O 0.6051550004999999 0.91017999875 0.70663499825
 O7 O 0.6051550004999999 0.91017999875 1.04336500175
 O7 O 0.6448449995 0.83982000125 0.70663499825
 O7 O 0.6448449995 0.83982000125 1.04336500175
 Si1 Si 0.8172350005 0.7716099992500001 0.8248350025
 Si1 Si 0.9327649995 0.9783900007499999 0.9251649975
 Si1 Si 0.9327649995 0.9783900007499999 0.8248350025
 Si1 Si 0.8172350005 0.7716099992500001 0.9251649975
 Si1 Si 0.9327649995 0.7716099992500001 0.9251649975
 Si1 Si 0.8172350005 0.9783900007499999 0.8248350025
 Si1 Si 0.8172350005 0.9783900007499999 0.9251649975
 Si1 Si 0.9327649995 0.7716099992500001 0.8248350025
 Si1 Si 0.9422350005 0.8966099992500001 0.8248350025
 Si1 Si 0.8077649995 0.8533900007499999 0.9251649975
 Si1 Si 0.8077649995 0.8533900007499999 0.8248350025
 Si1 Si 0.9422350005 0.8966099992500001 0.9251649975
 Si1 Si 0.8077649995 0.8966099992500001 0.9251649975
 Si1 Si 0.9422350005 0.8533900007499999 0.8248350025
 Si1 Si 0.9422350005 0.8533900007499999 0.9251649975
 Si1 Si 0.8077649995 0.8966099992500001 0.8248350025
 Si2 Si 0.7801799997500001 0.7715750002499999 0.824832499
 Si2 Si 0.96982000025 0.97842499975 0.925167501
 Si2 Si 0.96982000025 0.97842499975 0.824832499
 Si2 Si 0.7801799997500001 0.7715750002499999 0.925167501
 Si2 Si 0.96982000025 0.7715750002499999 0.925167501
 Si2 Si 0.7801799997500001 0.97842499975 0.824832499
 Si2 Si 0.7801799997500001 0.97842499975 0.925167501
 Si2 Si 0.96982000025 0.7715750002499999 0.824832499
 Si2 Si 0.90517999975 0.89657500025 0.824832499
 Si2 Si 0.8448200002499999 0.85342499975 0.925167501
 Si2 Si 0.8448200002499999 0.85342499975 0.824832499
 Si2 Si 0.90517999975 0.89657500025 0.925167501
 Si2 Si 0.8448200002499999 0.89657500025 0.925167501
 Si2 Si 0.90517999975 0.85342499975 0.824832499
 Si2 Si 0.90517999975 0.85342499975 0.925167501
 Si2 Si 0.8448200002499999 0.89657500025 0.824832499
 Si3 Si 0.797362499 0.8264449985 0.75
 Si3 Si 0.797362499 0.8264449985 1.0
 Si3 Si 0.952637501 0.9235550015 0.75
 Si3 Si 0.952637501 0.9235550015 1.0
 Si3 Si 0.952637501 0.8264449985 0.75
 Si3 Si 0.952637501 0.8264449985 1.0
 Si3 Si 0.797362499 0.9235550015 0.75
 Si3 Si 0.797362499 0.9235550015 1.0
 Si3 Si 0.922362499 0.9514449985 0.75
 Si3 Si 0.922362499 0.9514449985 1.0
 Si3 Si 0.827637501 0.7985550015 0.75
 Si3 Si 0.827637501 0.7985550015 1.0
 Si3 Si 0.827637501 0.9514449985 0.75
 Si3 Si 0.827637501 0.9514449985 1.0
 Si3 Si 0.922362499 0.7985550015 0.75
 Si3 Si 0.922362499 0.7985550015 1.0
 Si4 Si 0.7678549997499999 0.79804499825 0.75
 Si4 Si 0.7678549997499999 0.79804499825 1.0
 Si4 Si 0.9821450002500001 0.95195500175 0.75
 Si4 Si 0.9821450002500001 0.95195500175 1.0
 Si4 Si 0.9821450002500001 0.79804499825 0.75
 Si4 Si 0.9821450002500001 0.79804499825 1.0
 Si4 Si 0.7678549997499999 0.95195500175 0.75
 Si4 Si 0.7678549997499999 0.95195500175 1.0
 Si4 Si 0.8928549997499999 0.92304499825 0.75
 Si4 Si 0.8928549997499999 0.92304499825 1.0
 Si4 Si 0.8571450002500001 0.82695500175 0.75
 Si4 Si 0.8571450002500001 0.82695500175 1.0
 Si4 Si 0.8571450002500001 0.92304499825 0.75
 Si4 Si 0.8571450002500001 0.92304499825 1.0
 Si4 Si 0.8928549997499999 0.82695500175 0.75
 Si4 Si 0.8928549997499999 0.82695500175 1.0
 O1 O 0.7987025007499999 0.7775350007499999 0.82191000125
 O1 O 0.9512974992500001 0.97246499925 0.92808999875
 O1 O 0.9512974992500001 0.97246499925 0.82191000125
 O1 O 0.7987025007499999 0.7775350007499999 0.92808999875
 O1 O 0.9512974992500001 0.7775350007499999 0.92808999875
 O1 O 0.7987025007499999 0.97246499925 0.82191000125
 O1 O 0.7987025007499999 0.97246499925 0.92808999875
 O1 O 0.9512974992500001 0.7775350007499999 0.82191000125
 O1 O 0.9237025007499999 0.90253500075 0.82191000125
 O1 O 0.8262974992500001 0.8474649992500001 0.92808999875
 O1 O 0.8262974992500001 0.8474649992500001 0.82191000125
 O1 O 0.9237025007499999 0.90253500075 0.92808999875
 O1 O 0.8262974992500001 0.90253500075 0.92808999875
 O1 O 0.9237025007499999 0.8474649992500001 0.82191000125
 O1 O 0.9237025007499999 0.8474649992500001 0.92808999875
 O1 O 0.8262974992500001 0.90253500075 0.82191000125
 O2 O 0.8273824974999999 0.78536500025 0.7932275012500001
 O2 O 0.9226175025 0.96463499975 0.95677249875
 O2 O 0.9226175025 0.96463499975 0.7932275012500001
 O2 O 0.8273824974999999 0.78536500025 0.95677249875
 O2 O 0.9226175025 0.78536500025 0.95677249875
 O2 O 0.8273824974999999 0.96463499975 0.7932275012500001
 O2 O 0.8273824974999999 0.96463499975 0.95677249875
 O2 O 0.9226175025 0.78536500025 0.7932275012500001
 O2 O 0.9523824975 0.91036500025 0.7932275012500001
 O2 O 0.7976175025000001 0.83963499975 0.95677249875
 O2 O 0.7976175025000001 0.83963499975 0.7932275012500001
 O2 O 0.9523824975 0.91036500025 0.95677249875
 O2 O 0.7976175025000001 0.91036500025 0.95677249875
 O2 O 0.9523824975 0.83963499975 0.7932275012500001
 O2 O 0.9523824975 0.83963499975 0.95677249875
 O2 O 0.7976175025000001 0.91036500025 0.7932275012500001
 O3 O 0.81933250275 0.75 0.80936750025
 O3 O 0.81933250275 1.0 0.80936750025
 O3 O 0.93066749725 0.75 0.94063249975
 O3 O 0.93066749725 1.0 0.94063249975
 O3 O 0.93066749725 0.75 0.80936750025
 O3 O 0.93066749725 1.0 0.80936750025
 O3 O 0.81933250275 0.75 0.94063249975
 O3 O 0.81933250275 1.0 0.94063249975
 O3 O 0.94433250275 0.875 0.80936750025
 O3 O 0.80566749725 0.875 0.94063249975
 O3 O 0.80566749725 0.875 0.80936750025
 O3 O 0.94433250275 0.875 0.94063249975
 O4 O 0.82323499775 0.77379499925 0.875
 O4 O 0.92676500225 0.97620500075 0.875
 O4 O 0.92676500225 0.77379499925 0.875
 O4 O 0.82323499775 0.97620500075 0.875
 O4 O 0.94823499775 0.89879499925 0.875
 O4 O 0.80176500225 0.85120500075 0.875
 O4 O 0.80176500225 0.89879499925 0.875
 O4 O 0.94823499775 0.85120500075 0.875
 O5 O 0.7781475 0.75 0.8090699985
 O5 O 0.7781475 1.0 0.8090699985
 O5 O 0.9718525 0.75 0.9409300015
 O5 O 0.9718525 1.0 0.9409300015
 O5 O 0.9718525 0.75 0.8090699985
 O5 O 0.9718525 1.0 0.8090699985
 O5 O 0.7781475 0.75 0.9409300015
 O5 O 0.7781475 1.0 0.9409300015
 O5 O 0.9031475 0.875 0.8090699985
 O5 O 0.8468525 0.875 0.9409300015
 O5 O 0.8468525 0.875 0.8090699985
 O5 O 0.9031475 0.875 0.9409300015
 O6 O 0.7741599995 0.7736249995 0.875
 O6 O 0.9758400005 0.9763750005 0.875
 O6 O 0.9758400005 0.7736249995 0.875
 O6 O 0.7741599995 0.9763750005 0.875
 O6 O 0.8991599995 0.8986249995 0.875
 O6 O 0.8508400005 0.8513750005 0.875
 O6 O 0.8508400005 0.8986249995 0.875
 O6 O 0.8991599995 0.8513750005 0.875
 O7 O 0.7698449995000001 0.78517999875 0.79336500175
 O7 O 0.9801550005 0.96482000125 0.95663499825
 O7 O 0.9801550005 0.96482000125 0.79336500175
 O7 O 0.7698449995000001 0.78517999875 0.95663499825
 O7 O 0.9801550005 0.78517999875 0.95663499825
 O7 O 0.7698449995000001 0.96482000125 0.79336500175
 O7 O 0.7698449995000001 0.96482000125 0.95663499825
 O7 O 0.9801550005 0.78517999875 0.79336500175
 O7 O 0.8948449995 0.91017999875 0.79336500175
 O7 O 0.8551550004999999 0.83982000125 0.95663499825
 O7 O 0.8551550004999999 0.83982000125 0.79336500175
 O7 O 0.8948449995 0.91017999875 0.95663499825
 O7 O 0.8551550004999999 0.91017999875 0.95663499825
 O7 O 0.8948449995 0.83982000125 0.79336500175
 O7 O 0.8948449995 0.83982000125 0.95663499825
 O7 O 0.8551550004999999 0.91017999875 0.79336500175
 O8 O 0.8125 0.8125 0.75
 O8 O 0.8125 0.8125 1.0
 O8 O 0.9375 0.9375 0.75
 O8 O 0.9375 0.9375 1.0
 O8 O 0.9375 0.8125 0.75
 O8 O 0.9375 0.8125 1.0
 O8 O 0.8125 0.9375 0.75
 O8 O 0.8125 0.9375 1.0
 O9 O 0.78091249975 0.81469249725 0.75
 O9 O 0.78091249975 0.81469249725 1.0
 O9 O 0.96908750025 0.93530750275 0.75
 O9 O 0.96908750025 0.93530750275 1.0
 O9 O 0.96908750025 0.81469249725 0.75
 O9 O 0.96908750025 0.81469249725 1.0
 O9 O 0.78091249975 0.93530750275 0.75
 O9 O 0.78091249975 0.93530750275 1.0
 O9 O 0.90591249975 0.93969249725 0.75
 O9 O 0.90591249975 0.93969249725 1.0
 O9 O 0.84408750025 0.81030750275 0.75
 O9 O 0.84408750025 0.81030750275 1.0
 O9 O 0.84408750025 0.93969249725 0.75
 O9 O 0.84408750025 0.93969249725 1.0
 O9 O 0.90591249975 0.81030750275 0.75
 O9 O 0.90591249975 0.81030750275 1.0
 O10 O 0.75 0.8065750002500001 0.75
 O10 O 0.75 0.8065750002500001 1.0
 O10 O 1.0 0.8065750002500001 0.75
 O10 O 1.0 0.8065750002500001 1.0
 O10 O 0.75 0.9434249997499999 0.75
 O10 O 0.75 0.9434249997499999 1.0
 O10 O 1.0 0.9434249997499999 0.75
 O10 O 1.0 0.9434249997499999 1.0
 O10 O 0.875 0.9315750002500001 0.75
 O10 O 0.875 0.9315750002500001 1.0
 O10 O 0.875 0.8184249997499999 0.75
 O10 O 0.875 0.8184249997499999 1.0
 O2 O 0.7976175025000001 0.83963499975 0.70677249875
 O2 O 0.7976175025000001 0.83963499975 1.04322750125
 O2 O 0.9523824975 0.91036500025 0.70677249875
 O2 O 0.9523824975 0.91036500025 1.04322750125
 O2 O 0.9523824975 0.83963499975 0.70677249875
 O2 O 0.9523824975 0.83963499975 1.04322750125
 O2 O 0.7976175025000001 0.91036500025 0.70677249875
 O2 O 0.7976175025000001 0.91036500025 1.04322750125
 O2 O 0.9226175025 0.96463499975 0.70677249875
 O2 O 0.9226175025 0.96463499975 1.04322750125
 O2 O 0.8273824974999999 0.78536500025 0.70677249875
 O2 O 0.8273824974999999 0.78536500025 1.04322750125
 O2 O 0.8273824974999999 0.96463499975 0.70677249875
 O2 O 0.8273824974999999 0.96463499975 1.04322750125
 O2 O 0.9226175025 0.78536500025 0.70677249875
 O2 O 0.9226175025 0.78536500025 1.04322750125
 O7 O 0.7698449995000001 0.78517999875 0.70663499825
 O7 O 0.7698449995000001 0.78517999875 1.04336500175
 O7 O 0.9801550005 0.96482000125 0.70663499825
 O7 O 0.9801550005 0.96482000125 1.04336500175
 O7 O 0.9801550005 0.78517999875 0.70663499825
 O7 O 0.9801550005 0.78517999875 1.04336500175
 O7 O 0.7698449995000001 0.96482000125 0.70663499825
 O7 O 0.7698449995000001 0.96482000125 1.04336500175
 O7 O 0.8948449995 0.91017999875 0.70663499825
 O7 O 0.8948449995 0.91017999875 1.04336500175
 O7 O 0.8551550004999999 0.83982000125 0.70663499825
 O7 O 0.8551550004999999 0.83982000125 1.04336500175
 O7 O 0.8551550004999999 0.91017999875 0.70663499825
 O7 O 0.8551550004999999 0.91017999875 1.04336500175
 O7 O 0.8948449995 0.83982000125 0.70663499825
 O7 O 0.8948449995 0.83982000125 1.04336500175