data_LTA_p1.cif
File created by Fernando Fajardo-Rojas's code on 2021-09-23 23:47:29.669696
 
###################################################################################
#                                                                                 #
#    Code developed in the CoDeMatE LAB                ######  ######  ##   ##    #
#    Chemical & Biological Engineering Department      #       #       # # # #    #
#    Colorado School of Mines                          #       ######  #  #  #    #
#    Email: jfajardorojas@mines.edu                    #            #  #     #    #
#                                                      ######  ######  #     #    #
#                                                                                 #
###################################################################################
 
_audit_creation_method               JFRcode
_cell_length_a                       35.757000000000005
_cell_length_b                       35.757000000000005
_cell_length_c                       35.757000000000005
_cell_angle_alpha                    90.0000
_cell_angle_beta                     90.0000
_cell_angle_gamma                    90.0000
_cell_volume                         1693.2436645590003
 
_symmetry_space_group_name_H-M      P1
_symmetry_Int_Tables_number         221
 
loop_                                 
 _atom_site_label                     
 _atom_site_type_symbol               
 _atom_site_fract_x                   
 _atom_site_fract_y                   
 _atom_site_fract_z                   
O1 O 0.0 0.07073333366666666 0.16666666666666666
 O1 O 0.0 0.07073333366666666 0.16666666666666666
 O1 O 0.0 0.26260000466666666 0.16666666666666666
 O1 O 0.0 0.26260000466666666 0.16666666666666666
 O1 O 0.16666666666666666 0.0 0.07073333366666666
 O1 O 0.16666666666666666 0.0 0.07073333366666666
 O1 O 0.16666666666666666 0.0 0.26260000466666666
 O1 O 0.16666666666666666 0.0 0.26260000466666666
 O1 O 0.07073333366666666 0.16666666666666666 0.0
 O1 O 0.07073333366666666 0.16666666666666666 0.0
 O1 O 0.26260000466666666 0.16666666666666666 0.0
 O1 O 0.26260000466666666 0.16666666666666666 0.0
 O1 O 0.07073333366666666 0.0 0.16666666666666666
 O1 O 0.07073333366666666 0.0 0.16666666666666666
 O1 O 0.26260000466666666 0.0 0.16666666666666666
 O1 O 0.26260000466666666 0.0 0.16666666666666666
 O1 O 0.0 0.16666666666666666 0.26260000466666666
 O1 O 0.0 0.16666666666666666 0.26260000466666666
 O1 O 0.0 0.16666666666666666 0.07073333366666666
 O1 O 0.0 0.16666666666666666 0.07073333366666666
 O1 O 0.16666666666666666 0.07073333366666666 0.0
 O1 O 0.16666666666666666 0.07073333366666666 0.0
 O1 O 0.16666666666666666 0.26260000466666666 0.0
 O1 O 0.16666666666666666 0.26260000466666666 0.0
 O2 O 0.03676666566666666 0.03676666566666666 0.112800002
 O2 O 0.29656666533333337 0.29656666533333337
  0.22053333133333333
 O2 O 0.29656666533333337 0.29656666533333337 0.112800002
 O2 O 0.03676666566666666 0.03676666566666666
  0.22053333133333333
 O2 O 0.29656666533333337 0.03676666566666666
  0.22053333133333333
 O2 O 0.03676666566666666 0.29656666533333337 0.112800002
 O2 O 0.03676666566666666 0.29656666533333337
  0.22053333133333333
 O2 O 0.29656666533333337 0.03676666566666666 0.112800002
 O2 O 0.112800002 0.03676666566666666 0.03676666566666666
 O2 O 0.22053333133333333 0.29656666533333337
  0.29656666533333337
 O2 O 0.112800002 0.29656666533333337 0.29656666533333337
 O2 O 0.22053333133333333 0.03676666566666666
  0.03676666566666666
 O2 O 0.22053333133333333 0.29656666533333337
  0.03676666566666666
 O2 O 0.112800002 0.03676666566666666 0.29656666533333337
 O2 O 0.22053333133333333 0.03676666566666666
  0.29656666533333337
 O2 O 0.112800002 0.29656666533333337 0.03676666566666666
 O2 O 0.03676666566666666 0.112800002 0.03676666566666666
 O2 O 0.29656666533333337 0.22053333133333333
  0.29656666533333337
 O2 O 0.29656666533333337 0.112800002 0.29656666533333337
 O2 O 0.03676666566666666 0.22053333133333333
  0.03676666566666666
 O2 O 0.03676666566666666 0.22053333133333333
  0.29656666533333337
 O2 O 0.29656666533333337 0.112800002 0.03676666566666666
 O2 O 0.29656666533333337 0.22053333133333333
  0.03676666566666666
 O2 O 0.03676666566666666 0.112800002 0.29656666533333337
 O3 O 0.0 0.09890000033333333 0.09890000033333333
 O3 O 0.0 0.09890000033333333 0.09890000033333333
 O3 O 0.0 0.234433333 0.234433333
 O3 O 0.0 0.234433333 0.234433333
 O3 O 0.0 0.234433333 0.09890000033333333
 O3 O 0.0 0.234433333 0.09890000033333333
 O3 O 0.0 0.09890000033333333 0.234433333
 O3 O 0.0 0.09890000033333333 0.234433333
 O3 O 0.09890000033333333 0.0 0.09890000033333333
 O3 O 0.09890000033333333 0.0 0.09890000033333333
 O3 O 0.234433333 0.0 0.234433333
 O3 O 0.234433333 0.0 0.234433333
 O3 O 0.09890000033333333 0.0 0.234433333
 O3 O 0.09890000033333333 0.0 0.234433333
 O3 O 0.234433333 0.0 0.09890000033333333
 O3 O 0.234433333 0.0 0.09890000033333333
 O3 O 0.09890000033333333 0.09890000033333333 0.0
 O3 O 0.09890000033333333 0.09890000033333333 0.0
 O3 O 0.234433333 0.234433333 0.0
 O3 O 0.234433333 0.234433333 0.0
 O3 O 0.234433333 0.09890000033333333 0.0
 O3 O 0.234433333 0.09890000033333333 0.0
 O3 O 0.09890000033333333 0.234433333 0.0
 O3 O 0.09890000033333333 0.234433333 0.0
 O2 O 0.29656666533333337 0.03676666566666666 0.112800002
 O2 O 0.03676664833333333 0.03676666566666666 0.112800002
 O2 O 0.29656666533333337 0.29656666533333337
  0.22053333133333333
 O2 O 0.03676664833333333 0.29656666533333337
  0.22053333133333333
 O2 O 0.29656666533333337 0.29656666533333337 0.112800002
 O2 O 0.03676664833333333 0.29656666533333337 0.112800002
 O2 O 0.29656666533333337 0.03676666566666666
  0.22053333133333333
 O2 O 0.03676664833333333 0.03676666566666666
  0.22053333133333333
 O2 O 0.112800002 0.29656666533333337 0.03676666566666666
 O2 O 0.112800002 0.03676664833333333 0.03676666566666666
 O2 O 0.22053333133333333 0.29656666533333337
  0.29656666533333337
 O2 O 0.22053333133333333 0.03676664833333333
  0.29656666533333337
 O2 O 0.112800002 0.29656666533333337 0.29656666533333337
 O2 O 0.112800002 0.03676664833333333 0.29656666533333337
 O2 O 0.22053333133333333 0.29656666533333337
  0.03676666566666666
 O2 O 0.22053333133333333 0.03676664833333333
  0.03676666566666666
 O2 O 0.03676666566666666 0.112800002 0.29656666533333337
 O2 O 0.03676666566666666 0.112800002 0.03676664833333333
 O2 O 0.29656666533333337 0.22053333133333333
  0.29656666533333337
 O2 O 0.29656666533333337 0.22053333133333333
  0.03676664833333333
 O2 O 0.29656666533333337 0.112800002 0.29656666533333337
 O2 O 0.29656666533333337 0.112800002 0.03676664833333333
 O2 O 0.03676666566666666 0.22053333133333333
  0.29656666533333337
 O2 O 0.03676666566666666 0.22053333133333333
  0.03676664833333333
 O2 O 0.03676666566666666 0.29656666533333337
  0.22053333133333333
 O2 O 0.03676666566666666 0.03676664833333333
  0.22053333133333333
 O2 O 0.29656666533333337 0.29656666533333337 0.112800002
 O2 O 0.29656666533333337 0.03676664833333333 0.112800002
 O2 O 0.29656666533333337 0.29656666533333337
  0.22053333133333333
 O2 O 0.29656666533333337 0.03676664833333333
  0.22053333133333333
 O2 O 0.03676666566666666 0.29656666533333337 0.112800002
 O2 O 0.03676666566666666 0.03676664833333333 0.112800002
 O2 O 0.29656666533333337 0.112800002 0.29656666533333337
 O2 O 0.03676664833333333 0.112800002 0.29656666533333337
 O2 O 0.29656666533333337 0.22053333133333333
  0.03676666566666666
 O2 O 0.03676664833333333 0.22053333133333333
  0.03676666566666666
 O2 O 0.29656666533333337 0.112800002 0.03676666566666666
 O2 O 0.03676664833333333 0.112800002 0.03676666566666666
 O2 O 0.29656666533333337 0.22053333133333333
  0.29656666533333337
 O2 O 0.03676664833333333 0.22053333133333333
  0.29656666533333337
 O2 O 0.112800002 0.03676666566666666 0.29656666533333337
 O2 O 0.112800002 0.03676666566666666 0.03676664833333333
 O2 O 0.22053333133333333 0.29656666533333337
  0.29656666533333337
 O2 O 0.22053333133333333 0.29656666533333337
  0.03676664833333333
 O2 O 0.112800002 0.29656666533333337 0.29656666533333337
 O2 O 0.112800002 0.29656666533333337 0.03676664833333333
 O2 O 0.22053333133333333 0.03676666566666666
  0.29656666533333337
 O2 O 0.22053333133333333 0.03676666566666666
  0.03676664833333333
 T1 Si 0.0 0.060766666999999996 0.12280000233333332
 T1 Si 0.0 0.060766666999999996 0.12280000233333332
 T1 Si 0.0 0.272566676 0.21053334066666665
 T1 Si 0.0 0.272566676 0.21053334066666665
 T1 Si 0.0 0.272566676 0.12280000233333332
 T1 Si 0.0 0.272566676 0.12280000233333332
 T1 Si 0.0 0.060766666999999996 0.21053334066666665
 T1 Si 0.0 0.060766666999999996 0.21053334066666665
 T1 Si 0.12280000233333332 0.0 0.060766666999999996
 T1 Si 0.12280000233333332 0.0 0.060766666999999996
 T1 Si 0.21053334066666665 0.0 0.272566676
 T1 Si 0.21053334066666665 0.0 0.272566676
 T1 Si 0.12280000233333332 0.0 0.272566676
 T1 Si 0.12280000233333332 0.0 0.272566676
 T1 Si 0.21053334066666665 0.0 0.060766666999999996
 T1 Si 0.21053334066666665 0.0 0.060766666999999996
 T1 Si 0.060766666999999996 0.12280000233333332 0.0
 T1 Si 0.060766666999999996 0.12280000233333332 0.0
 T1 Si 0.272566676 0.21053334066666665 0.0
 T1 Si 0.272566676 0.21053334066666665 0.0
 T1 Si 0.272566676 0.12280000233333332 0.0
 T1 Si 0.272566676 0.12280000233333332 0.0
 T1 Si 0.060766666999999996 0.21053334066666665 0.0
 T1 Si 0.060766666999999996 0.21053334066666665 0.0
 T1 Si 0.060766666999999996 0.0 0.21053334066666665
 T1 Si 0.060766666999999996 0.0 0.21053334066666665
 T1 Si 0.272566676 0.0 0.12280000233333332
 T1 Si 0.272566676 0.0 0.12280000233333332
 T1 Si 0.272566676 0.0 0.21053334066666665
 T1 Si 0.272566676 0.0 0.21053334066666665
 T1 Si 0.060766666999999996 0.0 0.12280000233333332
 T1 Si 0.060766666999999996 0.0 0.12280000233333332
 T1 Si 0.0 0.12280000233333332 0.272566676
 T1 Si 0.0 0.12280000233333332 0.272566676
 T1 Si 0.0 0.21053334066666665 0.060766666999999996
 T1 Si 0.0 0.21053334066666665 0.060766666999999996
 T1 Si 0.0 0.12280000233333332 0.060766666999999996
 T1 Si 0.0 0.12280000233333332 0.060766666999999996
 T1 Si 0.0 0.21053334066666665 0.272566676
 T1 Si 0.0 0.21053334066666665 0.272566676
 T1 Si 0.12280000233333332 0.060766666999999996 0.0
 T1 Si 0.12280000233333332 0.060766666999999996 0.0
 T1 Si 0.21053334066666665 0.272566676 0.0
 T1 Si 0.21053334066666665 0.272566676 0.0
 T1 Si 0.12280000233333332 0.272566676 0.0
 T1 Si 0.12280000233333332 0.272566676 0.0
 T1 Si 0.21053334066666665 0.060766666999999996 0.0
 T1 Si 0.21053334066666665 0.060766666999999996 0.0
 O1 O 0.3333333333333333 0.07073333366666666
  0.16666666666666666
 O1 O 0.3333333333333333 0.07073333366666666
  0.16666666666666666
 O1 O 0.3333333333333333 0.26260000466666666
  0.16666666666666666
 O1 O 0.3333333333333333 0.26260000466666666
  0.16666666666666666
 O1 O 0.5 0.0 0.07073333366666666
 O1 O 0.5 0.0 0.07073333366666666
 O1 O 0.5 0.0 0.26260000466666666
 O1 O 0.5 0.0 0.26260000466666666
 O1 O 0.404066667 0.16666666666666666 0.0
 O1 O 0.404066667 0.16666666666666666 0.0
 O1 O 0.595933338 0.16666666666666666 0.0
 O1 O 0.595933338 0.16666666666666666 0.0
 O1 O 0.404066667 0.0 0.16666666666666666
 O1 O 0.404066667 0.0 0.16666666666666666
 O1 O 0.595933338 0.0 0.16666666666666666
 O1 O 0.595933338 0.0 0.16666666666666666
 O1 O 0.3333333333333333 0.16666666666666666
  0.26260000466666666
 O1 O 0.3333333333333333 0.16666666666666666
  0.26260000466666666
 O1 O 0.3333333333333333 0.16666666666666666
  0.07073333366666666
 O1 O 0.3333333333333333 0.16666666666666666
  0.07073333366666666
 O1 O 0.5 0.07073333366666666 0.0
 O1 O 0.5 0.07073333366666666 0.0
 O1 O 0.5 0.26260000466666666 0.0
 O1 O 0.5 0.26260000466666666 0.0
 O2 O 0.37009999899999996 0.03676666566666666 0.112800002
 O2 O 0.6298999986666667 0.29656666533333337
  0.22053333133333333
 O2 O 0.6298999986666667 0.29656666533333337 0.112800002
 O2 O 0.37009999899999996 0.03676666566666666
  0.22053333133333333
 O2 O 0.6298999986666667 0.03676666566666666
  0.22053333133333333
 O2 O 0.37009999899999996 0.29656666533333337 0.112800002
 O2 O 0.37009999899999996 0.29656666533333337
  0.22053333133333333
 O2 O 0.6298999986666667 0.03676666566666666 0.112800002
 O2 O 0.4461333353333333 0.03676666566666666
  0.03676666566666666
 O2 O 0.5538666646666667 0.29656666533333337
  0.29656666533333337
 O2 O 0.4461333353333333 0.29656666533333337
  0.29656666533333337
 O2 O 0.5538666646666667 0.03676666566666666
  0.03676666566666666
 O2 O 0.5538666646666667 0.29656666533333337
  0.03676666566666666
 O2 O 0.4461333353333333 0.03676666566666666
  0.29656666533333337
 O2 O 0.5538666646666667 0.03676666566666666
  0.29656666533333337
 O2 O 0.4461333353333333 0.29656666533333337
  0.03676666566666666
 O2 O 0.37009999899999996 0.112800002 0.03676666566666666
 O2 O 0.6298999986666667 0.22053333133333333
  0.29656666533333337
 O2 O 0.6298999986666667 0.112800002 0.29656666533333337
 O2 O 0.37009999899999996 0.22053333133333333
  0.03676666566666666
 O2 O 0.37009999899999996 0.22053333133333333
  0.29656666533333337
 O2 O 0.6298999986666667 0.112800002 0.03676666566666666
 O2 O 0.6298999986666667 0.22053333133333333
  0.03676666566666666
 O2 O 0.37009999899999996 0.112800002 0.29656666533333337
 O3 O 0.3333333333333333 0.09890000033333333
  0.09890000033333333
 O3 O 0.3333333333333333 0.09890000033333333
  0.09890000033333333
 O3 O 0.3333333333333333 0.234433333 0.234433333
 O3 O 0.3333333333333333 0.234433333 0.234433333
 O3 O 0.3333333333333333 0.234433333 0.09890000033333333
 O3 O 0.3333333333333333 0.234433333 0.09890000033333333
 O3 O 0.3333333333333333 0.09890000033333333 0.234433333
 O3 O 0.3333333333333333 0.09890000033333333 0.234433333
 O3 O 0.43223333366666666 0.0 0.09890000033333333
 O3 O 0.43223333366666666 0.0 0.09890000033333333
 O3 O 0.5677666663333333 0.0 0.234433333
 O3 O 0.5677666663333333 0.0 0.234433333
 O3 O 0.43223333366666666 0.0 0.234433333
 O3 O 0.43223333366666666 0.0 0.234433333
 O3 O 0.5677666663333333 0.0 0.09890000033333333
 O3 O 0.5677666663333333 0.0 0.09890000033333333
 O3 O 0.43223333366666666 0.09890000033333333 0.0
 O3 O 0.43223333366666666 0.09890000033333333 0.0
 O3 O 0.5677666663333333 0.234433333 0.0
 O3 O 0.5677666663333333 0.234433333 0.0
 O3 O 0.5677666663333333 0.09890000033333333 0.0
 O3 O 0.5677666663333333 0.09890000033333333 0.0
 O3 O 0.43223333366666666 0.234433333 0.0
 O3 O 0.43223333366666666 0.234433333 0.0
 O2 O 0.6298999986666667 0.03676666566666666 0.112800002
 O2 O 0.37009998166666663 0.03676666566666666 0.112800002
 O2 O 0.6298999986666667 0.29656666533333337
  0.22053333133333333
 O2 O 0.37009998166666663 0.29656666533333337
  0.22053333133333333
 O2 O 0.6298999986666667 0.29656666533333337 0.112800002
 O2 O 0.37009998166666663 0.29656666533333337 0.112800002
 O2 O 0.6298999986666667 0.03676666566666666
  0.22053333133333333
 O2 O 0.37009998166666663 0.03676666566666666
  0.22053333133333333
 O2 O 0.4461333353333333 0.29656666533333337
  0.03676666566666666
 O2 O 0.4461333353333333 0.03676664833333333
  0.03676666566666666
 O2 O 0.5538666646666667 0.29656666533333337
  0.29656666533333337
 O2 O 0.5538666646666667 0.03676664833333333
  0.29656666533333337
 O2 O 0.4461333353333333 0.29656666533333337
  0.29656666533333337
 O2 O 0.4461333353333333 0.03676664833333333
  0.29656666533333337
 O2 O 0.5538666646666667 0.29656666533333337
  0.03676666566666666
 O2 O 0.5538666646666667 0.03676664833333333
  0.03676666566666666
 O2 O 0.37009999899999996 0.112800002 0.29656666533333337
 O2 O 0.37009999899999996 0.112800002 0.03676664833333333
 O2 O 0.6298999986666667 0.22053333133333333
  0.29656666533333337
 O2 O 0.6298999986666667 0.22053333133333333
  0.03676664833333333
 O2 O 0.6298999986666667 0.112800002 0.29656666533333337
 O2 O 0.6298999986666667 0.112800002 0.03676664833333333
 O2 O 0.37009999899999996 0.22053333133333333
  0.29656666533333337
 O2 O 0.37009999899999996 0.22053333133333333
  0.03676664833333333
 O2 O 0.37009999899999996 0.29656666533333337
  0.22053333133333333
 O2 O 0.37009999899999996 0.03676664833333333
  0.22053333133333333
 O2 O 0.6298999986666667 0.29656666533333337 0.112800002
 O2 O 0.6298999986666667 0.03676664833333333 0.112800002
 O2 O 0.6298999986666667 0.29656666533333337
  0.22053333133333333
 O2 O 0.6298999986666667 0.03676664833333333
  0.22053333133333333
 O2 O 0.37009999899999996 0.29656666533333337 0.112800002
 O2 O 0.37009999899999996 0.03676664833333333 0.112800002
 O2 O 0.6298999986666667 0.112800002 0.29656666533333337
 O2 O 0.37009998166666663 0.112800002 0.29656666533333337
 O2 O 0.6298999986666667 0.22053333133333333
  0.03676666566666666
 O2 O 0.37009998166666663 0.22053333133333333
  0.03676666566666666
 O2 O 0.6298999986666667 0.112800002 0.03676666566666666
 O2 O 0.37009998166666663 0.112800002 0.03676666566666666
 O2 O 0.6298999986666667 0.22053333133333333
  0.29656666533333337
 O2 O 0.37009998166666663 0.22053333133333333
  0.29656666533333337
 O2 O 0.4461333353333333 0.03676666566666666
  0.29656666533333337
 O2 O 0.4461333353333333 0.03676666566666666
  0.03676664833333333
 O2 O 0.5538666646666667 0.29656666533333337
  0.29656666533333337
 O2 O 0.5538666646666667 0.29656666533333337
  0.03676664833333333
 O2 O 0.4461333353333333 0.29656666533333337
  0.29656666533333337
 O2 O 0.4461333353333333 0.29656666533333337
  0.03676664833333333
 O2 O 0.5538666646666667 0.03676666566666666
  0.29656666533333337
 O2 O 0.5538666646666667 0.03676666566666666
  0.03676664833333333
 T1 Si 0.3333333333333333 0.060766666999999996
  0.12280000233333332
 T1 Si 0.3333333333333333 0.060766666999999996
  0.12280000233333332
 T1 Si 0.3333333333333333 0.272566676 0.21053334066666665
 T1 Si 0.3333333333333333 0.272566676 0.21053334066666665
 T1 Si 0.3333333333333333 0.272566676 0.12280000233333332
 T1 Si 0.3333333333333333 0.272566676 0.12280000233333332
 T1 Si 0.3333333333333333 0.060766666999999996
  0.21053334066666665
 T1 Si 0.3333333333333333 0.060766666999999996
  0.21053334066666665
 T1 Si 0.45613333566666664 0.0 0.060766666999999996
 T1 Si 0.45613333566666664 0.0 0.060766666999999996
 T1 Si 0.543866674 0.0 0.272566676
 T1 Si 0.543866674 0.0 0.272566676
 T1 Si 0.45613333566666664 0.0 0.272566676
 T1 Si 0.45613333566666664 0.0 0.272566676
 T1 Si 0.543866674 0.0 0.060766666999999996
 T1 Si 0.543866674 0.0 0.060766666999999996
 T1 Si 0.3941000003333333 0.12280000233333332 0.0
 T1 Si 0.3941000003333333 0.12280000233333332 0.0
 T1 Si 0.6059000093333333 0.21053334066666665 0.0
 T1 Si 0.6059000093333333 0.21053334066666665 0.0
 T1 Si 0.6059000093333333 0.12280000233333332 0.0
 T1 Si 0.6059000093333333 0.12280000233333332 0.0
 T1 Si 0.3941000003333333 0.21053334066666665 0.0
 T1 Si 0.3941000003333333 0.21053334066666665 0.0
 T1 Si 0.3941000003333333 0.0 0.21053334066666665
 T1 Si 0.3941000003333333 0.0 0.21053334066666665
 T1 Si 0.6059000093333333 0.0 0.12280000233333332
 T1 Si 0.6059000093333333 0.0 0.12280000233333332
 T1 Si 0.6059000093333333 0.0 0.21053334066666665
 T1 Si 0.6059000093333333 0.0 0.21053334066666665
 T1 Si 0.3941000003333333 0.0 0.12280000233333332
 T1 Si 0.3941000003333333 0.0 0.12280000233333332
 T1 Si 0.3333333333333333 0.12280000233333332 0.272566676
 T1 Si 0.3333333333333333 0.12280000233333332 0.272566676
 T1 Si 0.3333333333333333 0.21053334066666665
  0.060766666999999996
 T1 Si 0.3333333333333333 0.21053334066666665
  0.060766666999999996
 T1 Si 0.3333333333333333 0.12280000233333332
  0.060766666999999996
 T1 Si 0.3333333333333333 0.12280000233333332
  0.060766666999999996
 T1 Si 0.3333333333333333 0.21053334066666665 0.272566676
 T1 Si 0.3333333333333333 0.21053334066666665 0.272566676
 T1 Si 0.45613333566666664 0.060766666999999996 0.0
 T1 Si 0.45613333566666664 0.060766666999999996 0.0
 T1 Si 0.543866674 0.272566676 0.0
 T1 Si 0.543866674 0.272566676 0.0
 T1 Si 0.45613333566666664 0.272566676 0.0
 T1 Si 0.45613333566666664 0.272566676 0.0
 T1 Si 0.543866674 0.060766666999999996 0.0
 T1 Si 0.543866674 0.060766666999999996 0.0
 O1 O 0.6666666666666666 0.07073333366666666
  0.16666666666666666
 O1 O 0.6666666666666666 0.07073333366666666
  0.16666666666666666
 O1 O 0.6666666666666666 0.26260000466666666
  0.16666666666666666
 O1 O 0.6666666666666666 0.26260000466666666
  0.16666666666666666
 O1 O 0.8333333333333333 0.0 0.07073333366666666
 O1 O 0.8333333333333333 0.0 0.07073333366666666
 O1 O 0.8333333333333333 0.0 0.26260000466666666
 O1 O 0.8333333333333333 0.0 0.26260000466666666
 O1 O 0.7374000003333333 0.16666666666666666 0.0
 O1 O 0.7374000003333333 0.16666666666666666 0.0
 O1 O 0.9292666713333333 0.16666666666666666 0.0
 O1 O 0.9292666713333333 0.16666666666666666 0.0
 O1 O 0.7374000003333333 0.0 0.16666666666666666
 O1 O 0.7374000003333333 0.0 0.16666666666666666
 O1 O 0.9292666713333333 0.0 0.16666666666666666
 O1 O 0.9292666713333333 0.0 0.16666666666666666
 O1 O 0.6666666666666666 0.16666666666666666
  0.26260000466666666
 O1 O 0.6666666666666666 0.16666666666666666
  0.26260000466666666
 O1 O 0.6666666666666666 0.16666666666666666
  0.07073333366666666
 O1 O 0.6666666666666666 0.16666666666666666
  0.07073333366666666
 O1 O 0.8333333333333333 0.07073333366666666 0.0
 O1 O 0.8333333333333333 0.07073333366666666 0.0
 O1 O 0.8333333333333333 0.26260000466666666 0.0
 O1 O 0.8333333333333333 0.26260000466666666 0.0
 O2 O 0.7034333323333333 0.03676666566666666 0.112800002
 O2 O 0.9632333319999999 0.29656666533333337
  0.22053333133333333
 O2 O 0.9632333319999999 0.29656666533333337 0.112800002
 O2 O 0.7034333323333333 0.03676666566666666
  0.22053333133333333
 O2 O 0.9632333319999999 0.03676666566666666
  0.22053333133333333
 O2 O 0.7034333323333333 0.29656666533333337 0.112800002
 O2 O 0.7034333323333333 0.29656666533333337
  0.22053333133333333
 O2 O 0.9632333319999999 0.03676666566666666 0.112800002
 O2 O 0.7794666686666667 0.03676666566666666
  0.03676666566666666
 O2 O 0.887199998 0.29656666533333337 0.29656666533333337
 O2 O 0.7794666686666667 0.29656666533333337
  0.29656666533333337
 O2 O 0.887199998 0.03676666566666666 0.03676666566666666
 O2 O 0.887199998 0.29656666533333337 0.03676666566666666
 O2 O 0.7794666686666667 0.03676666566666666
  0.29656666533333337
 O2 O 0.887199998 0.03676666566666666 0.29656666533333337
 O2 O 0.7794666686666667 0.29656666533333337
  0.03676666566666666
 O2 O 0.7034333323333333 0.112800002 0.03676666566666666
 O2 O 0.9632333319999999 0.22053333133333333
  0.29656666533333337
 O2 O 0.9632333319999999 0.112800002 0.29656666533333337
 O2 O 0.7034333323333333 0.22053333133333333
  0.03676666566666666
 O2 O 0.7034333323333333 0.22053333133333333
  0.29656666533333337
 O2 O 0.9632333319999999 0.112800002 0.03676666566666666
 O2 O 0.9632333319999999 0.22053333133333333
  0.03676666566666666
 O2 O 0.7034333323333333 0.112800002 0.29656666533333337
 O3 O 0.6666666666666666 0.09890000033333333
  0.09890000033333333
 O3 O 0.6666666666666666 0.09890000033333333
  0.09890000033333333
 O3 O 0.6666666666666666 0.234433333 0.234433333
 O3 O 0.6666666666666666 0.234433333 0.234433333
 O3 O 0.6666666666666666 0.234433333 0.09890000033333333
 O3 O 0.6666666666666666 0.234433333 0.09890000033333333
 O3 O 0.6666666666666666 0.09890000033333333 0.234433333
 O3 O 0.6666666666666666 0.09890000033333333 0.234433333
 O3 O 0.765566667 0.0 0.09890000033333333
 O3 O 0.765566667 0.0 0.09890000033333333
 O3 O 0.9010999996666667 0.0 0.234433333
 O3 O 0.9010999996666667 0.0 0.234433333
 O3 O 0.765566667 0.0 0.234433333
 O3 O 0.765566667 0.0 0.234433333
 O3 O 0.9010999996666667 0.0 0.09890000033333333
 O3 O 0.9010999996666667 0.0 0.09890000033333333
 O3 O 0.765566667 0.09890000033333333 0.0
 O3 O 0.765566667 0.09890000033333333 0.0
 O3 O 0.9010999996666667 0.234433333 0.0
 O3 O 0.9010999996666667 0.234433333 0.0
 O3 O 0.9010999996666667 0.09890000033333333 0.0
 O3 O 0.9010999996666667 0.09890000033333333 0.0
 O3 O 0.765566667 0.234433333 0.0
 O3 O 0.765566667 0.234433333 0.0
 O2 O 0.9632333319999999 0.03676666566666666 0.112800002
 O2 O 0.703433315 0.03676666566666666 0.112800002
 O2 O 0.9632333319999999 0.29656666533333337
  0.22053333133333333
 O2 O 0.703433315 0.29656666533333337 0.22053333133333333
 O2 O 0.9632333319999999 0.29656666533333337 0.112800002
 O2 O 0.703433315 0.29656666533333337 0.112800002
 O2 O 0.9632333319999999 0.03676666566666666
  0.22053333133333333
 O2 O 0.703433315 0.03676666566666666 0.22053333133333333
 O2 O 0.7794666686666667 0.29656666533333337
  0.03676666566666666
 O2 O 0.7794666686666667 0.03676664833333333
  0.03676666566666666
 O2 O 0.887199998 0.29656666533333337 0.29656666533333337
 O2 O 0.887199998 0.03676664833333333 0.29656666533333337
 O2 O 0.7794666686666667 0.29656666533333337
  0.29656666533333337
 O2 O 0.7794666686666667 0.03676664833333333
  0.29656666533333337
 O2 O 0.887199998 0.29656666533333337 0.03676666566666666
 O2 O 0.887199998 0.03676664833333333 0.03676666566666666
 O2 O 0.7034333323333333 0.112800002 0.29656666533333337
 O2 O 0.7034333323333333 0.112800002 0.03676664833333333
 O2 O 0.9632333319999999 0.22053333133333333
  0.29656666533333337
 O2 O 0.9632333319999999 0.22053333133333333
  0.03676664833333333
 O2 O 0.9632333319999999 0.112800002 0.29656666533333337
 O2 O 0.9632333319999999 0.112800002 0.03676664833333333
 O2 O 0.7034333323333333 0.22053333133333333
  0.29656666533333337
 O2 O 0.7034333323333333 0.22053333133333333
  0.03676664833333333
 O2 O 0.7034333323333333 0.29656666533333337
  0.22053333133333333
 O2 O 0.7034333323333333 0.03676664833333333
  0.22053333133333333
 O2 O 0.9632333319999999 0.29656666533333337 0.112800002
 O2 O 0.9632333319999999 0.03676664833333333 0.112800002
 O2 O 0.9632333319999999 0.29656666533333337
  0.22053333133333333
 O2 O 0.9632333319999999 0.03676664833333333
  0.22053333133333333
 O2 O 0.7034333323333333 0.29656666533333337 0.112800002
 O2 O 0.7034333323333333 0.03676664833333333 0.112800002
 O2 O 0.9632333319999999 0.112800002 0.29656666533333337
 O2 O 0.703433315 0.112800002 0.29656666533333337
 O2 O 0.9632333319999999 0.22053333133333333
  0.03676666566666666
 O2 O 0.703433315 0.22053333133333333 0.03676666566666666
 O2 O 0.9632333319999999 0.112800002 0.03676666566666666
 O2 O 0.703433315 0.112800002 0.03676666566666666
 O2 O 0.9632333319999999 0.22053333133333333
  0.29656666533333337
 O2 O 0.703433315 0.22053333133333333 0.29656666533333337
 O2 O 0.7794666686666667 0.03676666566666666
  0.29656666533333337
 O2 O 0.7794666686666667 0.03676666566666666
  0.03676664833333333
 O2 O 0.887199998 0.29656666533333337 0.29656666533333337
 O2 O 0.887199998 0.29656666533333337 0.03676664833333333
 O2 O 0.7794666686666667 0.29656666533333337
  0.29656666533333337
 O2 O 0.7794666686666667 0.29656666533333337
  0.03676664833333333
 O2 O 0.887199998 0.03676666566666666 0.29656666533333337
 O2 O 0.887199998 0.03676666566666666 0.03676664833333333
 T1 Si 0.6666666666666666 0.060766666999999996
  0.12280000233333332
 T1 Si 0.6666666666666666 0.060766666999999996
  0.12280000233333332
 T1 Si 0.6666666666666666 0.272566676 0.21053334066666665
 T1 Si 0.6666666666666666 0.272566676 0.21053334066666665
 T1 Si 0.6666666666666666 0.272566676 0.12280000233333332
 T1 Si 0.6666666666666666 0.272566676 0.12280000233333332
 T1 Si 0.6666666666666666 0.060766666999999996
  0.21053334066666665
 T1 Si 0.6666666666666666 0.060766666999999996
  0.21053334066666665
 T1 Si 0.789466669 0.0 0.060766666999999996
 T1 Si 0.789466669 0.0 0.060766666999999996
 T1 Si 0.8772000073333333 0.0 0.272566676
 T1 Si 0.8772000073333333 0.0 0.272566676
 T1 Si 0.789466669 0.0 0.272566676
 T1 Si 0.789466669 0.0 0.272566676
 T1 Si 0.8772000073333333 0.0 0.060766666999999996
 T1 Si 0.8772000073333333 0.0 0.060766666999999996
 T1 Si 0.7274333336666666 0.12280000233333332 0.0
 T1 Si 0.7274333336666666 0.12280000233333332 0.0
 T1 Si 0.9392333426666666 0.21053334066666665 0.0
 T1 Si 0.9392333426666666 0.21053334066666665 0.0
 T1 Si 0.9392333426666666 0.12280000233333332 0.0
 T1 Si 0.9392333426666666 0.12280000233333332 0.0
 T1 Si 0.7274333336666666 0.21053334066666665 0.0
 T1 Si 0.7274333336666666 0.21053334066666665 0.0
 T1 Si 0.7274333336666666 0.0 0.21053334066666665
 T1 Si 0.7274333336666666 0.0 0.21053334066666665
 T1 Si 0.9392333426666666 0.0 0.12280000233333332
 T1 Si 0.9392333426666666 0.0 0.12280000233333332
 T1 Si 0.9392333426666666 0.0 0.21053334066666665
 T1 Si 0.9392333426666666 0.0 0.21053334066666665
 T1 Si 0.7274333336666666 0.0 0.12280000233333332
 T1 Si 0.7274333336666666 0.0 0.12280000233333332
 T1 Si 0.6666666666666666 0.12280000233333332 0.272566676
 T1 Si 0.6666666666666666 0.12280000233333332 0.272566676
 T1 Si 0.6666666666666666 0.21053334066666665
  0.060766666999999996
 T1 Si 0.6666666666666666 0.21053334066666665
  0.060766666999999996
 T1 Si 0.6666666666666666 0.12280000233333332
  0.060766666999999996
 T1 Si 0.6666666666666666 0.12280000233333332
  0.060766666999999996
 T1 Si 0.6666666666666666 0.21053334066666665 0.272566676
 T1 Si 0.6666666666666666 0.21053334066666665 0.272566676
 T1 Si 0.789466669 0.060766666999999996 0.0
 T1 Si 0.789466669 0.060766666999999996 0.0
 T1 Si 0.8772000073333333 0.272566676 0.0
 T1 Si 0.8772000073333333 0.272566676 0.0
 T1 Si 0.789466669 0.272566676 0.0
 T1 Si 0.789466669 0.272566676 0.0
 T1 Si 0.8772000073333333 0.060766666999999996 0.0
 T1 Si 0.8772000073333333 0.060766666999999996 0.0
 O1 O 0.0 0.404066667 0.16666666666666666
 O1 O 0.0 0.404066667 0.16666666666666666
 O1 O 0.0 0.595933338 0.16666666666666666
 O1 O 0.0 0.595933338 0.16666666666666666
 O1 O 0.16666666666666666 0.3333333333333333
  0.07073333366666666
 O1 O 0.16666666666666666 0.3333333333333333
  0.07073333366666666
 O1 O 0.16666666666666666 0.3333333333333333
  0.26260000466666666
 O1 O 0.16666666666666666 0.3333333333333333
  0.26260000466666666
 O1 O 0.07073333366666666 0.5 0.0
 O1 O 0.07073333366666666 0.5 0.0
 O1 O 0.26260000466666666 0.5 0.0
 O1 O 0.26260000466666666 0.5 0.0
 O1 O 0.07073333366666666 0.3333333333333333
  0.16666666666666666
 O1 O 0.07073333366666666 0.3333333333333333
  0.16666666666666666
 O1 O 0.26260000466666666 0.3333333333333333
  0.16666666666666666
 O1 O 0.26260000466666666 0.3333333333333333
  0.16666666666666666
 O1 O 0.0 0.5 0.26260000466666666
 O1 O 0.0 0.5 0.26260000466666666
 O1 O 0.0 0.5 0.07073333366666666
 O1 O 0.0 0.5 0.07073333366666666
 O1 O 0.16666666666666666 0.404066667 0.0
 O1 O 0.16666666666666666 0.404066667 0.0
 O1 O 0.16666666666666666 0.595933338 0.0
 O1 O 0.16666666666666666 0.595933338 0.0
 O2 O 0.03676666566666666 0.37009999899999996 0.112800002
 O2 O 0.29656666533333337 0.6298999986666667
  0.22053333133333333
 O2 O 0.29656666533333337 0.6298999986666667 0.112800002
 O2 O 0.03676666566666666 0.37009999899999996
  0.22053333133333333
 O2 O 0.29656666533333337 0.37009999899999996
  0.22053333133333333
 O2 O 0.03676666566666666 0.6298999986666667 0.112800002
 O2 O 0.03676666566666666 0.6298999986666667
  0.22053333133333333
 O2 O 0.29656666533333337 0.37009999899999996 0.112800002
 O2 O 0.112800002 0.37009999899999996 0.03676666566666666
 O2 O 0.22053333133333333 0.6298999986666667
  0.29656666533333337
 O2 O 0.112800002 0.6298999986666667 0.29656666533333337
 O2 O 0.22053333133333333 0.37009999899999996
  0.03676666566666666
 O2 O 0.22053333133333333 0.6298999986666667
  0.03676666566666666
 O2 O 0.112800002 0.37009999899999996 0.29656666533333337
 O2 O 0.22053333133333333 0.37009999899999996
  0.29656666533333337
 O2 O 0.112800002 0.6298999986666667 0.03676666566666666
 O2 O 0.03676666566666666 0.4461333353333333
  0.03676666566666666
 O2 O 0.29656666533333337 0.5538666646666667
  0.29656666533333337
 O2 O 0.29656666533333337 0.4461333353333333
  0.29656666533333337
 O2 O 0.03676666566666666 0.5538666646666667
  0.03676666566666666
 O2 O 0.03676666566666666 0.5538666646666667
  0.29656666533333337
 O2 O 0.29656666533333337 0.4461333353333333
  0.03676666566666666
 O2 O 0.29656666533333337 0.5538666646666667
  0.03676666566666666
 O2 O 0.03676666566666666 0.4461333353333333
  0.29656666533333337
 O3 O 0.0 0.43223333366666666 0.09890000033333333
 O3 O 0.0 0.43223333366666666 0.09890000033333333
 O3 O 0.0 0.5677666663333333 0.234433333
 O3 O 0.0 0.5677666663333333 0.234433333
 O3 O 0.0 0.5677666663333333 0.09890000033333333
 O3 O 0.0 0.5677666663333333 0.09890000033333333
 O3 O 0.0 0.43223333366666666 0.234433333
 O3 O 0.0 0.43223333366666666 0.234433333
 O3 O 0.09890000033333333 0.3333333333333333
  0.09890000033333333
 O3 O 0.09890000033333333 0.3333333333333333
  0.09890000033333333
 O3 O 0.234433333 0.3333333333333333 0.234433333
 O3 O 0.234433333 0.3333333333333333 0.234433333
 O3 O 0.09890000033333333 0.3333333333333333 0.234433333
 O3 O 0.09890000033333333 0.3333333333333333 0.234433333
 O3 O 0.234433333 0.3333333333333333 0.09890000033333333
 O3 O 0.234433333 0.3333333333333333 0.09890000033333333
 O3 O 0.09890000033333333 0.43223333366666666 0.0
 O3 O 0.09890000033333333 0.43223333366666666 0.0
 O3 O 0.234433333 0.5677666663333333 0.0
 O3 O 0.234433333 0.5677666663333333 0.0
 O3 O 0.234433333 0.43223333366666666 0.0
 O3 O 0.234433333 0.43223333366666666 0.0
 O3 O 0.09890000033333333 0.5677666663333333 0.0
 O3 O 0.09890000033333333 0.5677666663333333 0.0
 O2 O 0.29656666533333337 0.37009999899999996 0.112800002
 O2 O 0.03676664833333333 0.37009999899999996 0.112800002
 O2 O 0.29656666533333337 0.6298999986666667
  0.22053333133333333
 O2 O 0.03676664833333333 0.6298999986666667
  0.22053333133333333
 O2 O 0.29656666533333337 0.6298999986666667 0.112800002
 O2 O 0.03676664833333333 0.6298999986666667 0.112800002
 O2 O 0.29656666533333337 0.37009999899999996
  0.22053333133333333
 O2 O 0.03676664833333333 0.37009999899999996
  0.22053333133333333
 O2 O 0.112800002 0.6298999986666667 0.03676666566666666
 O2 O 0.112800002 0.37009998166666663 0.03676666566666666
 O2 O 0.22053333133333333 0.6298999986666667
  0.29656666533333337
 O2 O 0.22053333133333333 0.37009998166666663
  0.29656666533333337
 O2 O 0.112800002 0.6298999986666667 0.29656666533333337
 O2 O 0.112800002 0.37009998166666663 0.29656666533333337
 O2 O 0.22053333133333333 0.6298999986666667
  0.03676666566666666
 O2 O 0.22053333133333333 0.37009998166666663
  0.03676666566666666
 O2 O 0.03676666566666666 0.4461333353333333
  0.29656666533333337
 O2 O 0.03676666566666666 0.4461333353333333
  0.03676664833333333
 O2 O 0.29656666533333337 0.5538666646666667
  0.29656666533333337
 O2 O 0.29656666533333337 0.5538666646666667
  0.03676664833333333
 O2 O 0.29656666533333337 0.4461333353333333
  0.29656666533333337
 O2 O 0.29656666533333337 0.4461333353333333
  0.03676664833333333
 O2 O 0.03676666566666666 0.5538666646666667
  0.29656666533333337
 O2 O 0.03676666566666666 0.5538666646666667
  0.03676664833333333
 O2 O 0.03676666566666666 0.6298999986666667
  0.22053333133333333
 O2 O 0.03676666566666666 0.37009998166666663
  0.22053333133333333
 O2 O 0.29656666533333337 0.6298999986666667 0.112800002
 O2 O 0.29656666533333337 0.37009998166666663 0.112800002
 O2 O 0.29656666533333337 0.6298999986666667
  0.22053333133333333
 O2 O 0.29656666533333337 0.37009998166666663
  0.22053333133333333
 O2 O 0.03676666566666666 0.6298999986666667 0.112800002
 O2 O 0.03676666566666666 0.37009998166666663 0.112800002
 O2 O 0.29656666533333337 0.4461333353333333
  0.29656666533333337
 O2 O 0.03676664833333333 0.4461333353333333
  0.29656666533333337
 O2 O 0.29656666533333337 0.5538666646666667
  0.03676666566666666
 O2 O 0.03676664833333333 0.5538666646666667
  0.03676666566666666
 O2 O 0.29656666533333337 0.4461333353333333
  0.03676666566666666
 O2 O 0.03676664833333333 0.4461333353333333
  0.03676666566666666
 O2 O 0.29656666533333337 0.5538666646666667
  0.29656666533333337
 O2 O 0.03676664833333333 0.5538666646666667
  0.29656666533333337
 O2 O 0.112800002 0.37009999899999996 0.29656666533333337
 O2 O 0.112800002 0.37009999899999996 0.03676664833333333
 O2 O 0.22053333133333333 0.6298999986666667
  0.29656666533333337
 O2 O 0.22053333133333333 0.6298999986666667
  0.03676664833333333
 O2 O 0.112800002 0.6298999986666667 0.29656666533333337
 O2 O 0.112800002 0.6298999986666667 0.03676664833333333
 O2 O 0.22053333133333333 0.37009999899999996
  0.29656666533333337
 O2 O 0.22053333133333333 0.37009999899999996
  0.03676664833333333
 T1 Si 0.0 0.3941000003333333 0.12280000233333332
 T1 Si 0.0 0.3941000003333333 0.12280000233333332
 T1 Si 0.0 0.6059000093333333 0.21053334066666665
 T1 Si 0.0 0.6059000093333333 0.21053334066666665
 T1 Si 0.0 0.6059000093333333 0.12280000233333332
 T1 Si 0.0 0.6059000093333333 0.12280000233333332
 T1 Si 0.0 0.3941000003333333 0.21053334066666665
 T1 Si 0.0 0.3941000003333333 0.21053334066666665
 T1 Si 0.12280000233333332 0.3333333333333333
  0.060766666999999996
 T1 Si 0.12280000233333332 0.3333333333333333
  0.060766666999999996
 T1 Si 0.21053334066666665 0.3333333333333333 0.272566676
 T1 Si 0.21053334066666665 0.3333333333333333 0.272566676
 T1 Si 0.12280000233333332 0.3333333333333333 0.272566676
 T1 Si 0.12280000233333332 0.3333333333333333 0.272566676
 T1 Si 0.21053334066666665 0.3333333333333333
  0.060766666999999996
 T1 Si 0.21053334066666665 0.3333333333333333
  0.060766666999999996
 T1 Si 0.060766666999999996 0.45613333566666664 0.0
 T1 Si 0.060766666999999996 0.45613333566666664 0.0
 T1 Si 0.272566676 0.543866674 0.0
 T1 Si 0.272566676 0.543866674 0.0
 T1 Si 0.272566676 0.45613333566666664 0.0
 T1 Si 0.272566676 0.45613333566666664 0.0
 T1 Si 0.060766666999999996 0.543866674 0.0
 T1 Si 0.060766666999999996 0.543866674 0.0
 T1 Si 0.060766666999999996 0.3333333333333333
  0.21053334066666665
 T1 Si 0.060766666999999996 0.3333333333333333
  0.21053334066666665
 T1 Si 0.272566676 0.3333333333333333 0.12280000233333332
 T1 Si 0.272566676 0.3333333333333333 0.12280000233333332
 T1 Si 0.272566676 0.3333333333333333 0.21053334066666665
 T1 Si 0.272566676 0.3333333333333333 0.21053334066666665
 T1 Si 0.060766666999999996 0.3333333333333333
  0.12280000233333332
 T1 Si 0.060766666999999996 0.3333333333333333
  0.12280000233333332
 T1 Si 0.0 0.45613333566666664 0.272566676
 T1 Si 0.0 0.45613333566666664 0.272566676
 T1 Si 0.0 0.543866674 0.060766666999999996
 T1 Si 0.0 0.543866674 0.060766666999999996
 T1 Si 0.0 0.45613333566666664 0.060766666999999996
 T1 Si 0.0 0.45613333566666664 0.060766666999999996
 T1 Si 0.0 0.543866674 0.272566676
 T1 Si 0.0 0.543866674 0.272566676
 T1 Si 0.12280000233333332 0.3941000003333333 0.0
 T1 Si 0.12280000233333332 0.3941000003333333 0.0
 T1 Si 0.21053334066666665 0.6059000093333333 0.0
 T1 Si 0.21053334066666665 0.6059000093333333 0.0
 T1 Si 0.12280000233333332 0.6059000093333333 0.0
 T1 Si 0.12280000233333332 0.6059000093333333 0.0
 T1 Si 0.21053334066666665 0.3941000003333333 0.0
 T1 Si 0.21053334066666665 0.3941000003333333 0.0
 O1 O 0.3333333333333333 0.404066667 0.16666666666666666
 O1 O 0.3333333333333333 0.404066667 0.16666666666666666
 O1 O 0.3333333333333333 0.595933338 0.16666666666666666
 O1 O 0.3333333333333333 0.595933338 0.16666666666666666
 O1 O 0.5 0.3333333333333333 0.07073333366666666
 O1 O 0.5 0.3333333333333333 0.07073333366666666
 O1 O 0.5 0.3333333333333333 0.26260000466666666
 O1 O 0.5 0.3333333333333333 0.26260000466666666
 O1 O 0.404066667 0.5 0.0
 O1 O 0.404066667 0.5 0.0
 O1 O 0.595933338 0.5 0.0
 O1 O 0.595933338 0.5 0.0
 O1 O 0.404066667 0.3333333333333333 0.16666666666666666
 O1 O 0.404066667 0.3333333333333333 0.16666666666666666
 O1 O 0.595933338 0.3333333333333333 0.16666666666666666
 O1 O 0.595933338 0.3333333333333333 0.16666666666666666
 O1 O 0.3333333333333333 0.5 0.26260000466666666
 O1 O 0.3333333333333333 0.5 0.26260000466666666
 O1 O 0.3333333333333333 0.5 0.07073333366666666
 O1 O 0.3333333333333333 0.5 0.07073333366666666
 O1 O 0.5 0.404066667 0.0
 O1 O 0.5 0.404066667 0.0
 O1 O 0.5 0.595933338 0.0
 O1 O 0.5 0.595933338 0.0
 O2 O 0.37009999899999996 0.37009999899999996 0.112800002
 O2 O 0.6298999986666667 0.6298999986666667
  0.22053333133333333
 O2 O 0.6298999986666667 0.6298999986666667 0.112800002
 O2 O 0.37009999899999996 0.37009999899999996
  0.22053333133333333
 O2 O 0.6298999986666667 0.37009999899999996
  0.22053333133333333
 O2 O 0.37009999899999996 0.6298999986666667 0.112800002
 O2 O 0.37009999899999996 0.6298999986666667
  0.22053333133333333
 O2 O 0.6298999986666667 0.37009999899999996 0.112800002
 O2 O 0.4461333353333333 0.37009999899999996
  0.03676666566666666
 O2 O 0.5538666646666667 0.6298999986666667
  0.29656666533333337
 O2 O 0.4461333353333333 0.6298999986666667
  0.29656666533333337
 O2 O 0.5538666646666667 0.37009999899999996
  0.03676666566666666
 O2 O 0.5538666646666667 0.6298999986666667
  0.03676666566666666
 O2 O 0.4461333353333333 0.37009999899999996
  0.29656666533333337
 O2 O 0.5538666646666667 0.37009999899999996
  0.29656666533333337
 O2 O 0.4461333353333333 0.6298999986666667
  0.03676666566666666
 O2 O 0.37009999899999996 0.4461333353333333
  0.03676666566666666
 O2 O 0.6298999986666667 0.5538666646666667
  0.29656666533333337
 O2 O 0.6298999986666667 0.4461333353333333
  0.29656666533333337
 O2 O 0.37009999899999996 0.5538666646666667
  0.03676666566666666
 O2 O 0.37009999899999996 0.5538666646666667
  0.29656666533333337
 O2 O 0.6298999986666667 0.4461333353333333
  0.03676666566666666
 O2 O 0.6298999986666667 0.5538666646666667
  0.03676666566666666
 O2 O 0.37009999899999996 0.4461333353333333
  0.29656666533333337
 O3 O 0.3333333333333333 0.43223333366666666
  0.09890000033333333
 O3 O 0.3333333333333333 0.43223333366666666
  0.09890000033333333
 O3 O 0.3333333333333333 0.5677666663333333 0.234433333
 O3 O 0.3333333333333333 0.5677666663333333 0.234433333
 O3 O 0.3333333333333333 0.5677666663333333
  0.09890000033333333
 O3 O 0.3333333333333333 0.5677666663333333
  0.09890000033333333
 O3 O 0.3333333333333333 0.43223333366666666 0.234433333
 O3 O 0.3333333333333333 0.43223333366666666 0.234433333
 O3 O 0.43223333366666666 0.3333333333333333
  0.09890000033333333
 O3 O 0.43223333366666666 0.3333333333333333
  0.09890000033333333
 O3 O 0.5677666663333333 0.3333333333333333 0.234433333
 O3 O 0.5677666663333333 0.3333333333333333 0.234433333
 O3 O 0.43223333366666666 0.3333333333333333 0.234433333
 O3 O 0.43223333366666666 0.3333333333333333 0.234433333
 O3 O 0.5677666663333333 0.3333333333333333
  0.09890000033333333
 O3 O 0.5677666663333333 0.3333333333333333
  0.09890000033333333
 O3 O 0.43223333366666666 0.43223333366666666 0.0
 O3 O 0.43223333366666666 0.43223333366666666 0.0
 O3 O 0.5677666663333333 0.5677666663333333 0.0
 O3 O 0.5677666663333333 0.5677666663333333 0.0
 O3 O 0.5677666663333333 0.43223333366666666 0.0
 O3 O 0.5677666663333333 0.43223333366666666 0.0
 O3 O 0.43223333366666666 0.5677666663333333 0.0
 O3 O 0.43223333366666666 0.5677666663333333 0.0
 O2 O 0.6298999986666667 0.37009999899999996 0.112800002
 O2 O 0.37009998166666663 0.37009999899999996 0.112800002
 O2 O 0.6298999986666667 0.6298999986666667
  0.22053333133333333
 O2 O 0.37009998166666663 0.6298999986666667
  0.22053333133333333
 O2 O 0.6298999986666667 0.6298999986666667 0.112800002
 O2 O 0.37009998166666663 0.6298999986666667 0.112800002
 O2 O 0.6298999986666667 0.37009999899999996
  0.22053333133333333
 O2 O 0.37009998166666663 0.37009999899999996
  0.22053333133333333
 O2 O 0.4461333353333333 0.6298999986666667
  0.03676666566666666
 O2 O 0.4461333353333333 0.37009998166666663
  0.03676666566666666
 O2 O 0.5538666646666667 0.6298999986666667
  0.29656666533333337
 O2 O 0.5538666646666667 0.37009998166666663
  0.29656666533333337
 O2 O 0.4461333353333333 0.6298999986666667
  0.29656666533333337
 O2 O 0.4461333353333333 0.37009998166666663
  0.29656666533333337
 O2 O 0.5538666646666667 0.6298999986666667
  0.03676666566666666
 O2 O 0.5538666646666667 0.37009998166666663
  0.03676666566666666
 O2 O 0.37009999899999996 0.4461333353333333
  0.29656666533333337
 O2 O 0.37009999899999996 0.4461333353333333
  0.03676664833333333
 O2 O 0.6298999986666667 0.5538666646666667
  0.29656666533333337
 O2 O 0.6298999986666667 0.5538666646666667
  0.03676664833333333
 O2 O 0.6298999986666667 0.4461333353333333
  0.29656666533333337
 O2 O 0.6298999986666667 0.4461333353333333
  0.03676664833333333
 O2 O 0.37009999899999996 0.5538666646666667
  0.29656666533333337
 O2 O 0.37009999899999996 0.5538666646666667
  0.03676664833333333
 O2 O 0.37009999899999996 0.6298999986666667
  0.22053333133333333
 O2 O 0.37009999899999996 0.37009998166666663
  0.22053333133333333
 O2 O 0.6298999986666667 0.6298999986666667 0.112800002
 O2 O 0.6298999986666667 0.37009998166666663 0.112800002
 O2 O 0.6298999986666667 0.6298999986666667
  0.22053333133333333
 O2 O 0.6298999986666667 0.37009998166666663
  0.22053333133333333
 O2 O 0.37009999899999996 0.6298999986666667 0.112800002
 O2 O 0.37009999899999996 0.37009998166666663 0.112800002
 O2 O 0.6298999986666667 0.4461333353333333
  0.29656666533333337
 O2 O 0.37009998166666663 0.4461333353333333
  0.29656666533333337
 O2 O 0.6298999986666667 0.5538666646666667
  0.03676666566666666
 O2 O 0.37009998166666663 0.5538666646666667
  0.03676666566666666
 O2 O 0.6298999986666667 0.4461333353333333
  0.03676666566666666
 O2 O 0.37009998166666663 0.4461333353333333
  0.03676666566666666
 O2 O 0.6298999986666667 0.5538666646666667
  0.29656666533333337
 O2 O 0.37009998166666663 0.5538666646666667
  0.29656666533333337
 O2 O 0.4461333353333333 0.37009999899999996
  0.29656666533333337
 O2 O 0.4461333353333333 0.37009999899999996
  0.03676664833333333
 O2 O 0.5538666646666667 0.6298999986666667
  0.29656666533333337
 O2 O 0.5538666646666667 0.6298999986666667
  0.03676664833333333
 O2 O 0.4461333353333333 0.6298999986666667
  0.29656666533333337
 O2 O 0.4461333353333333 0.6298999986666667
  0.03676664833333333
 O2 O 0.5538666646666667 0.37009999899999996
  0.29656666533333337
 O2 O 0.5538666646666667 0.37009999899999996
  0.03676664833333333
 T1 Si 0.3333333333333333 0.3941000003333333
  0.12280000233333332
 T1 Si 0.3333333333333333 0.3941000003333333
  0.12280000233333332
 T1 Si 0.3333333333333333 0.6059000093333333
  0.21053334066666665
 T1 Si 0.3333333333333333 0.6059000093333333
  0.21053334066666665
 T1 Si 0.3333333333333333 0.6059000093333333
  0.12280000233333332
 T1 Si 0.3333333333333333 0.6059000093333333
  0.12280000233333332
 T1 Si 0.3333333333333333 0.3941000003333333
  0.21053334066666665
 T1 Si 0.3333333333333333 0.3941000003333333
  0.21053334066666665
 T1 Si 0.45613333566666664 0.3333333333333333
  0.060766666999999996
 T1 Si 0.45613333566666664 0.3333333333333333
  0.060766666999999996
 T1 Si 0.543866674 0.3333333333333333 0.272566676
 T1 Si 0.543866674 0.3333333333333333 0.272566676
 T1 Si 0.45613333566666664 0.3333333333333333 0.272566676
 T1 Si 0.45613333566666664 0.3333333333333333 0.272566676
 T1 Si 0.543866674 0.3333333333333333 0.060766666999999996
 T1 Si 0.543866674 0.3333333333333333 0.060766666999999996
 T1 Si 0.3941000003333333 0.45613333566666664 0.0
 T1 Si 0.3941000003333333 0.45613333566666664 0.0
 T1 Si 0.6059000093333333 0.543866674 0.0
 T1 Si 0.6059000093333333 0.543866674 0.0
 T1 Si 0.6059000093333333 0.45613333566666664 0.0
 T1 Si 0.6059000093333333 0.45613333566666664 0.0
 T1 Si 0.3941000003333333 0.543866674 0.0
 T1 Si 0.3941000003333333 0.543866674 0.0
 T1 Si 0.3941000003333333 0.3333333333333333
  0.21053334066666665
 T1 Si 0.3941000003333333 0.3333333333333333
  0.21053334066666665
 T1 Si 0.6059000093333333 0.3333333333333333
  0.12280000233333332
 T1 Si 0.6059000093333333 0.3333333333333333
  0.12280000233333332
 T1 Si 0.6059000093333333 0.3333333333333333
  0.21053334066666665
 T1 Si 0.6059000093333333 0.3333333333333333
  0.21053334066666665
 T1 Si 0.3941000003333333 0.3333333333333333
  0.12280000233333332
 T1 Si 0.3941000003333333 0.3333333333333333
  0.12280000233333332
 T1 Si 0.3333333333333333 0.45613333566666664 0.272566676
 T1 Si 0.3333333333333333 0.45613333566666664 0.272566676
 T1 Si 0.3333333333333333 0.543866674 0.060766666999999996
 T1 Si 0.3333333333333333 0.543866674 0.060766666999999996
 T1 Si 0.3333333333333333 0.45613333566666664
  0.060766666999999996
 T1 Si 0.3333333333333333 0.45613333566666664
  0.060766666999999996
 T1 Si 0.3333333333333333 0.543866674 0.272566676
 T1 Si 0.3333333333333333 0.543866674 0.272566676
 T1 Si 0.45613333566666664 0.3941000003333333 0.0
 T1 Si 0.45613333566666664 0.3941000003333333 0.0
 T1 Si 0.543866674 0.6059000093333333 0.0
 T1 Si 0.543866674 0.6059000093333333 0.0
 T1 Si 0.45613333566666664 0.6059000093333333 0.0
 T1 Si 0.45613333566666664 0.6059000093333333 0.0
 T1 Si 0.543866674 0.3941000003333333 0.0
 T1 Si 0.543866674 0.3941000003333333 0.0
 O1 O 0.6666666666666666 0.404066667 0.16666666666666666
 O1 O 0.6666666666666666 0.404066667 0.16666666666666666
 O1 O 0.6666666666666666 0.595933338 0.16666666666666666
 O1 O 0.6666666666666666 0.595933338 0.16666666666666666
 O1 O 0.8333333333333333 0.3333333333333333
  0.07073333366666666
 O1 O 0.8333333333333333 0.3333333333333333
  0.07073333366666666
 O1 O 0.8333333333333333 0.3333333333333333
  0.26260000466666666
 O1 O 0.8333333333333333 0.3333333333333333
  0.26260000466666666
 O1 O 0.7374000003333333 0.5 0.0
 O1 O 0.7374000003333333 0.5 0.0
 O1 O 0.9292666713333333 0.5 0.0
 O1 O 0.9292666713333333 0.5 0.0
 O1 O 0.7374000003333333 0.3333333333333333
  0.16666666666666666
 O1 O 0.7374000003333333 0.3333333333333333
  0.16666666666666666
 O1 O 0.9292666713333333 0.3333333333333333
  0.16666666666666666
 O1 O 0.9292666713333333 0.3333333333333333
  0.16666666666666666
 O1 O 0.6666666666666666 0.5 0.26260000466666666
 O1 O 0.6666666666666666 0.5 0.26260000466666666
 O1 O 0.6666666666666666 0.5 0.07073333366666666
 O1 O 0.6666666666666666 0.5 0.07073333366666666
 O1 O 0.8333333333333333 0.404066667 0.0
 O1 O 0.8333333333333333 0.404066667 0.0
 O1 O 0.8333333333333333 0.595933338 0.0
 O1 O 0.8333333333333333 0.595933338 0.0
 O2 O 0.7034333323333333 0.37009999899999996 0.112800002
 O2 O 0.9632333319999999 0.6298999986666667
  0.22053333133333333
 O2 O 0.9632333319999999 0.6298999986666667 0.112800002
 O2 O 0.7034333323333333 0.37009999899999996
  0.22053333133333333
 O2 O 0.9632333319999999 0.37009999899999996
  0.22053333133333333
 O2 O 0.7034333323333333 0.6298999986666667 0.112800002
 O2 O 0.7034333323333333 0.6298999986666667
  0.22053333133333333
 O2 O 0.9632333319999999 0.37009999899999996 0.112800002
 O2 O 0.7794666686666667 0.37009999899999996
  0.03676666566666666
 O2 O 0.887199998 0.6298999986666667 0.29656666533333337
 O2 O 0.7794666686666667 0.6298999986666667
  0.29656666533333337
 O2 O 0.887199998 0.37009999899999996 0.03676666566666666
 O2 O 0.887199998 0.6298999986666667 0.03676666566666666
 O2 O 0.7794666686666667 0.37009999899999996
  0.29656666533333337
 O2 O 0.887199998 0.37009999899999996 0.29656666533333337
 O2 O 0.7794666686666667 0.6298999986666667
  0.03676666566666666
 O2 O 0.7034333323333333 0.4461333353333333
  0.03676666566666666
 O2 O 0.9632333319999999 0.5538666646666667
  0.29656666533333337
 O2 O 0.9632333319999999 0.4461333353333333
  0.29656666533333337
 O2 O 0.7034333323333333 0.5538666646666667
  0.03676666566666666
 O2 O 0.7034333323333333 0.5538666646666667
  0.29656666533333337
 O2 O 0.9632333319999999 0.4461333353333333
  0.03676666566666666
 O2 O 0.9632333319999999 0.5538666646666667
  0.03676666566666666
 O2 O 0.7034333323333333 0.4461333353333333
  0.29656666533333337
 O3 O 0.6666666666666666 0.43223333366666666
  0.09890000033333333
 O3 O 0.6666666666666666 0.43223333366666666
  0.09890000033333333
 O3 O 0.6666666666666666 0.5677666663333333 0.234433333
 O3 O 0.6666666666666666 0.5677666663333333 0.234433333
 O3 O 0.6666666666666666 0.5677666663333333
  0.09890000033333333
 O3 O 0.6666666666666666 0.5677666663333333
  0.09890000033333333
 O3 O 0.6666666666666666 0.43223333366666666 0.234433333
 O3 O 0.6666666666666666 0.43223333366666666 0.234433333
 O3 O 0.765566667 0.3333333333333333 0.09890000033333333
 O3 O 0.765566667 0.3333333333333333 0.09890000033333333
 O3 O 0.9010999996666667 0.3333333333333333 0.234433333
 O3 O 0.9010999996666667 0.3333333333333333 0.234433333
 O3 O 0.765566667 0.3333333333333333 0.234433333
 O3 O 0.765566667 0.3333333333333333 0.234433333
 O3 O 0.9010999996666667 0.3333333333333333
  0.09890000033333333
 O3 O 0.9010999996666667 0.3333333333333333
  0.09890000033333333
 O3 O 0.765566667 0.43223333366666666 0.0
 O3 O 0.765566667 0.43223333366666666 0.0
 O3 O 0.9010999996666667 0.5677666663333333 0.0
 O3 O 0.9010999996666667 0.5677666663333333 0.0
 O3 O 0.9010999996666667 0.43223333366666666 0.0
 O3 O 0.9010999996666667 0.43223333366666666 0.0
 O3 O 0.765566667 0.5677666663333333 0.0
 O3 O 0.765566667 0.5677666663333333 0.0
 O2 O 0.9632333319999999 0.37009999899999996 0.112800002
 O2 O 0.703433315 0.37009999899999996 0.112800002
 O2 O 0.9632333319999999 0.6298999986666667
  0.22053333133333333
 O2 O 0.703433315 0.6298999986666667 0.22053333133333333
 O2 O 0.9632333319999999 0.6298999986666667 0.112800002
 O2 O 0.703433315 0.6298999986666667 0.112800002
 O2 O 0.9632333319999999 0.37009999899999996
  0.22053333133333333
 O2 O 0.703433315 0.37009999899999996 0.22053333133333333
 O2 O 0.7794666686666667 0.6298999986666667
  0.03676666566666666
 O2 O 0.7794666686666667 0.37009998166666663
  0.03676666566666666
 O2 O 0.887199998 0.6298999986666667 0.29656666533333337
 O2 O 0.887199998 0.37009998166666663 0.29656666533333337
 O2 O 0.7794666686666667 0.6298999986666667
  0.29656666533333337
 O2 O 0.7794666686666667 0.37009998166666663
  0.29656666533333337
 O2 O 0.887199998 0.6298999986666667 0.03676666566666666
 O2 O 0.887199998 0.37009998166666663 0.03676666566666666
 O2 O 0.7034333323333333 0.4461333353333333
  0.29656666533333337
 O2 O 0.7034333323333333 0.4461333353333333
  0.03676664833333333
 O2 O 0.9632333319999999 0.5538666646666667
  0.29656666533333337
 O2 O 0.9632333319999999 0.5538666646666667
  0.03676664833333333
 O2 O 0.9632333319999999 0.4461333353333333
  0.29656666533333337
 O2 O 0.9632333319999999 0.4461333353333333
  0.03676664833333333
 O2 O 0.7034333323333333 0.5538666646666667
  0.29656666533333337
 O2 O 0.7034333323333333 0.5538666646666667
  0.03676664833333333
 O2 O 0.7034333323333333 0.6298999986666667
  0.22053333133333333
 O2 O 0.7034333323333333 0.37009998166666663
  0.22053333133333333
 O2 O 0.9632333319999999 0.6298999986666667 0.112800002
 O2 O 0.9632333319999999 0.37009998166666663 0.112800002
 O2 O 0.9632333319999999 0.6298999986666667
  0.22053333133333333
 O2 O 0.9632333319999999 0.37009998166666663
  0.22053333133333333
 O2 O 0.7034333323333333 0.6298999986666667 0.112800002
 O2 O 0.7034333323333333 0.37009998166666663 0.112800002
 O2 O 0.9632333319999999 0.4461333353333333
  0.29656666533333337
 O2 O 0.703433315 0.4461333353333333 0.29656666533333337
 O2 O 0.9632333319999999 0.5538666646666667
  0.03676666566666666
 O2 O 0.703433315 0.5538666646666667 0.03676666566666666
 O2 O 0.9632333319999999 0.4461333353333333
  0.03676666566666666
 O2 O 0.703433315 0.4461333353333333 0.03676666566666666
 O2 O 0.9632333319999999 0.5538666646666667
  0.29656666533333337
 O2 O 0.703433315 0.5538666646666667 0.29656666533333337
 O2 O 0.7794666686666667 0.37009999899999996
  0.29656666533333337
 O2 O 0.7794666686666667 0.37009999899999996
  0.03676664833333333
 O2 O 0.887199998 0.6298999986666667 0.29656666533333337
 O2 O 0.887199998 0.6298999986666667 0.03676664833333333
 O2 O 0.7794666686666667 0.6298999986666667
  0.29656666533333337
 O2 O 0.7794666686666667 0.6298999986666667
  0.03676664833333333
 O2 O 0.887199998 0.37009999899999996 0.29656666533333337
 O2 O 0.887199998 0.37009999899999996 0.03676664833333333
 T1 Si 0.6666666666666666 0.3941000003333333
  0.12280000233333332
 T1 Si 0.6666666666666666 0.3941000003333333
  0.12280000233333332
 T1 Si 0.6666666666666666 0.6059000093333333
  0.21053334066666665
 T1 Si 0.6666666666666666 0.6059000093333333
  0.21053334066666665
 T1 Si 0.6666666666666666 0.6059000093333333
  0.12280000233333332
 T1 Si 0.6666666666666666 0.6059000093333333
  0.12280000233333332
 T1 Si 0.6666666666666666 0.3941000003333333
  0.21053334066666665
 T1 Si 0.6666666666666666 0.3941000003333333
  0.21053334066666665
 T1 Si 0.789466669 0.3333333333333333 0.060766666999999996
 T1 Si 0.789466669 0.3333333333333333 0.060766666999999996
 T1 Si 0.8772000073333333 0.3333333333333333 0.272566676
 T1 Si 0.8772000073333333 0.3333333333333333 0.272566676
 T1 Si 0.789466669 0.3333333333333333 0.272566676
 T1 Si 0.789466669 0.3333333333333333 0.272566676
 T1 Si 0.8772000073333333 0.3333333333333333
  0.060766666999999996
 T1 Si 0.8772000073333333 0.3333333333333333
  0.060766666999999996
 T1 Si 0.7274333336666666 0.45613333566666664 0.0
 T1 Si 0.7274333336666666 0.45613333566666664 0.0
 T1 Si 0.9392333426666666 0.543866674 0.0
 T1 Si 0.9392333426666666 0.543866674 0.0
 T1 Si 0.9392333426666666 0.45613333566666664 0.0
 T1 Si 0.9392333426666666 0.45613333566666664 0.0
 T1 Si 0.7274333336666666 0.543866674 0.0
 T1 Si 0.7274333336666666 0.543866674 0.0
 T1 Si 0.7274333336666666 0.3333333333333333
  0.21053334066666665
 T1 Si 0.7274333336666666 0.3333333333333333
  0.21053334066666665
 T1 Si 0.9392333426666666 0.3333333333333333
  0.12280000233333332
 T1 Si 0.9392333426666666 0.3333333333333333
  0.12280000233333332
 T1 Si 0.9392333426666666 0.3333333333333333
  0.21053334066666665
 T1 Si 0.9392333426666666 0.3333333333333333
  0.21053334066666665
 T1 Si 0.7274333336666666 0.3333333333333333
  0.12280000233333332
 T1 Si 0.7274333336666666 0.3333333333333333
  0.12280000233333332
 T1 Si 0.6666666666666666 0.45613333566666664 0.272566676
 T1 Si 0.6666666666666666 0.45613333566666664 0.272566676
 T1 Si 0.6666666666666666 0.543866674 0.060766666999999996
 T1 Si 0.6666666666666666 0.543866674 0.060766666999999996
 T1 Si 0.6666666666666666 0.45613333566666664
  0.060766666999999996
 T1 Si 0.6666666666666666 0.45613333566666664
  0.060766666999999996
 T1 Si 0.6666666666666666 0.543866674 0.272566676
 T1 Si 0.6666666666666666 0.543866674 0.272566676
 T1 Si 0.789466669 0.3941000003333333 0.0
 T1 Si 0.789466669 0.3941000003333333 0.0
 T1 Si 0.8772000073333333 0.6059000093333333 0.0
 T1 Si 0.8772000073333333 0.6059000093333333 0.0
 T1 Si 0.789466669 0.6059000093333333 0.0
 T1 Si 0.789466669 0.6059000093333333 0.0
 T1 Si 0.8772000073333333 0.3941000003333333 0.0
 T1 Si 0.8772000073333333 0.3941000003333333 0.0
 O1 O 0.0 0.7374000003333333 0.16666666666666666
 O1 O 0.0 0.7374000003333333 0.16666666666666666
 O1 O 0.0 0.9292666713333333 0.16666666666666666
 O1 O 0.0 0.9292666713333333 0.16666666666666666
 O1 O 0.16666666666666666 0.6666666666666666
  0.07073333366666666
 O1 O 0.16666666666666666 0.6666666666666666
  0.07073333366666666
 O1 O 0.16666666666666666 0.6666666666666666
  0.26260000466666666
 O1 O 0.16666666666666666 0.6666666666666666
  0.26260000466666666
 O1 O 0.07073333366666666 0.8333333333333333 0.0
 O1 O 0.07073333366666666 0.8333333333333333 0.0
 O1 O 0.26260000466666666 0.8333333333333333 0.0
 O1 O 0.26260000466666666 0.8333333333333333 0.0
 O1 O 0.07073333366666666 0.6666666666666666
  0.16666666666666666
 O1 O 0.07073333366666666 0.6666666666666666
  0.16666666666666666
 O1 O 0.26260000466666666 0.6666666666666666
  0.16666666666666666
 O1 O 0.26260000466666666 0.6666666666666666
  0.16666666666666666
 O1 O 0.0 0.8333333333333333 0.26260000466666666
 O1 O 0.0 0.8333333333333333 0.26260000466666666
 O1 O 0.0 0.8333333333333333 0.07073333366666666
 O1 O 0.0 0.8333333333333333 0.07073333366666666
 O1 O 0.16666666666666666 0.7374000003333333 0.0
 O1 O 0.16666666666666666 0.7374000003333333 0.0
 O1 O 0.16666666666666666 0.9292666713333333 0.0
 O1 O 0.16666666666666666 0.9292666713333333 0.0
 O2 O 0.03676666566666666 0.7034333323333333 0.112800002
 O2 O 0.29656666533333337 0.9632333319999999
  0.22053333133333333
 O2 O 0.29656666533333337 0.9632333319999999 0.112800002
 O2 O 0.03676666566666666 0.7034333323333333
  0.22053333133333333
 O2 O 0.29656666533333337 0.7034333323333333
  0.22053333133333333
 O2 O 0.03676666566666666 0.9632333319999999 0.112800002
 O2 O 0.03676666566666666 0.9632333319999999
  0.22053333133333333
 O2 O 0.29656666533333337 0.7034333323333333 0.112800002
 O2 O 0.112800002 0.7034333323333333 0.03676666566666666
 O2 O 0.22053333133333333 0.9632333319999999
  0.29656666533333337
 O2 O 0.112800002 0.9632333319999999 0.29656666533333337
 O2 O 0.22053333133333333 0.7034333323333333
  0.03676666566666666
 O2 O 0.22053333133333333 0.9632333319999999
  0.03676666566666666
 O2 O 0.112800002 0.7034333323333333 0.29656666533333337
 O2 O 0.22053333133333333 0.7034333323333333
  0.29656666533333337
 O2 O 0.112800002 0.9632333319999999 0.03676666566666666
 O2 O 0.03676666566666666 0.7794666686666667
  0.03676666566666666
 O2 O 0.29656666533333337 0.887199998 0.29656666533333337
 O2 O 0.29656666533333337 0.7794666686666667
  0.29656666533333337
 O2 O 0.03676666566666666 0.887199998 0.03676666566666666
 O2 O 0.03676666566666666 0.887199998 0.29656666533333337
 O2 O 0.29656666533333337 0.7794666686666667
  0.03676666566666666
 O2 O 0.29656666533333337 0.887199998 0.03676666566666666
 O2 O 0.03676666566666666 0.7794666686666667
  0.29656666533333337
 O3 O 0.0 0.765566667 0.09890000033333333
 O3 O 0.0 0.765566667 0.09890000033333333
 O3 O 0.0 0.9010999996666667 0.234433333
 O3 O 0.0 0.9010999996666667 0.234433333
 O3 O 0.0 0.9010999996666667 0.09890000033333333
 O3 O 0.0 0.9010999996666667 0.09890000033333333
 O3 O 0.0 0.765566667 0.234433333
 O3 O 0.0 0.765566667 0.234433333
 O3 O 0.09890000033333333 0.6666666666666666
  0.09890000033333333
 O3 O 0.09890000033333333 0.6666666666666666
  0.09890000033333333
 O3 O 0.234433333 0.6666666666666666 0.234433333
 O3 O 0.234433333 0.6666666666666666 0.234433333
 O3 O 0.09890000033333333 0.6666666666666666 0.234433333
 O3 O 0.09890000033333333 0.6666666666666666 0.234433333
 O3 O 0.234433333 0.6666666666666666 0.09890000033333333
 O3 O 0.234433333 0.6666666666666666 0.09890000033333333
 O3 O 0.09890000033333333 0.765566667 0.0
 O3 O 0.09890000033333333 0.765566667 0.0
 O3 O 0.234433333 0.9010999996666667 0.0
 O3 O 0.234433333 0.9010999996666667 0.0
 O3 O 0.234433333 0.765566667 0.0
 O3 O 0.234433333 0.765566667 0.0
 O3 O 0.09890000033333333 0.9010999996666667 0.0
 O3 O 0.09890000033333333 0.9010999996666667 0.0
 O2 O 0.29656666533333337 0.7034333323333333 0.112800002
 O2 O 0.03676664833333333 0.7034333323333333 0.112800002
 O2 O 0.29656666533333337 0.9632333319999999
  0.22053333133333333
 O2 O 0.03676664833333333 0.9632333319999999
  0.22053333133333333
 O2 O 0.29656666533333337 0.9632333319999999 0.112800002
 O2 O 0.03676664833333333 0.9632333319999999 0.112800002
 O2 O 0.29656666533333337 0.7034333323333333
  0.22053333133333333
 O2 O 0.03676664833333333 0.7034333323333333
  0.22053333133333333
 O2 O 0.112800002 0.9632333319999999 0.03676666566666666
 O2 O 0.112800002 0.703433315 0.03676666566666666
 O2 O 0.22053333133333333 0.9632333319999999
  0.29656666533333337
 O2 O 0.22053333133333333 0.703433315 0.29656666533333337
 O2 O 0.112800002 0.9632333319999999 0.29656666533333337
 O2 O 0.112800002 0.703433315 0.29656666533333337
 O2 O 0.22053333133333333 0.9632333319999999
  0.03676666566666666
 O2 O 0.22053333133333333 0.703433315 0.03676666566666666
 O2 O 0.03676666566666666 0.7794666686666667
  0.29656666533333337
 O2 O 0.03676666566666666 0.7794666686666667
  0.03676664833333333
 O2 O 0.29656666533333337 0.887199998 0.29656666533333337
 O2 O 0.29656666533333337 0.887199998 0.03676664833333333
 O2 O 0.29656666533333337 0.7794666686666667
  0.29656666533333337
 O2 O 0.29656666533333337 0.7794666686666667
  0.03676664833333333
 O2 O 0.03676666566666666 0.887199998 0.29656666533333337
 O2 O 0.03676666566666666 0.887199998 0.03676664833333333
 O2 O 0.03676666566666666 0.9632333319999999
  0.22053333133333333
 O2 O 0.03676666566666666 0.703433315 0.22053333133333333
 O2 O 0.29656666533333337 0.9632333319999999 0.112800002
 O2 O 0.29656666533333337 0.703433315 0.112800002
 O2 O 0.29656666533333337 0.9632333319999999
  0.22053333133333333
 O2 O 0.29656666533333337 0.703433315 0.22053333133333333
 O2 O 0.03676666566666666 0.9632333319999999 0.112800002
 O2 O 0.03676666566666666 0.703433315 0.112800002
 O2 O 0.29656666533333337 0.7794666686666667
  0.29656666533333337
 O2 O 0.03676664833333333 0.7794666686666667
  0.29656666533333337
 O2 O 0.29656666533333337 0.887199998 0.03676666566666666
 O2 O 0.03676664833333333 0.887199998 0.03676666566666666
 O2 O 0.29656666533333337 0.7794666686666667
  0.03676666566666666
 O2 O 0.03676664833333333 0.7794666686666667
  0.03676666566666666
 O2 O 0.29656666533333337 0.887199998 0.29656666533333337
 O2 O 0.03676664833333333 0.887199998 0.29656666533333337
 O2 O 0.112800002 0.7034333323333333 0.29656666533333337
 O2 O 0.112800002 0.7034333323333333 0.03676664833333333
 O2 O 0.22053333133333333 0.9632333319999999
  0.29656666533333337
 O2 O 0.22053333133333333 0.9632333319999999
  0.03676664833333333
 O2 O 0.112800002 0.9632333319999999 0.29656666533333337
 O2 O 0.112800002 0.9632333319999999 0.03676664833333333
 O2 O 0.22053333133333333 0.7034333323333333
  0.29656666533333337
 O2 O 0.22053333133333333 0.7034333323333333
  0.03676664833333333
 T1 Si 0.0 0.7274333336666666 0.12280000233333332
 T1 Si 0.0 0.7274333336666666 0.12280000233333332
 T1 Si 0.0 0.9392333426666666 0.21053334066666665
 T1 Si 0.0 0.9392333426666666 0.21053334066666665
 T1 Si 0.0 0.9392333426666666 0.12280000233333332
 T1 Si 0.0 0.9392333426666666 0.12280000233333332
 T1 Si 0.0 0.7274333336666666 0.21053334066666665
 T1 Si 0.0 0.7274333336666666 0.21053334066666665
 T1 Si 0.12280000233333332 0.6666666666666666
  0.060766666999999996
 T1 Si 0.12280000233333332 0.6666666666666666
  0.060766666999999996
 T1 Si 0.21053334066666665 0.6666666666666666 0.272566676
 T1 Si 0.21053334066666665 0.6666666666666666 0.272566676
 T1 Si 0.12280000233333332 0.6666666666666666 0.272566676
 T1 Si 0.12280000233333332 0.6666666666666666 0.272566676
 T1 Si 0.21053334066666665 0.6666666666666666
  0.060766666999999996
 T1 Si 0.21053334066666665 0.6666666666666666
  0.060766666999999996
 T1 Si 0.060766666999999996 0.789466669 0.0
 T1 Si 0.060766666999999996 0.789466669 0.0
 T1 Si 0.272566676 0.8772000073333333 0.0
 T1 Si 0.272566676 0.8772000073333333 0.0
 T1 Si 0.272566676 0.789466669 0.0
 T1 Si 0.272566676 0.789466669 0.0
 T1 Si 0.060766666999999996 0.8772000073333333 0.0
 T1 Si 0.060766666999999996 0.8772000073333333 0.0
 T1 Si 0.060766666999999996 0.6666666666666666
  0.21053334066666665
 T1 Si 0.060766666999999996 0.6666666666666666
  0.21053334066666665
 T1 Si 0.272566676 0.6666666666666666 0.12280000233333332
 T1 Si 0.272566676 0.6666666666666666 0.12280000233333332
 T1 Si 0.272566676 0.6666666666666666 0.21053334066666665
 T1 Si 0.272566676 0.6666666666666666 0.21053334066666665
 T1 Si 0.060766666999999996 0.6666666666666666
  0.12280000233333332
 T1 Si 0.060766666999999996 0.6666666666666666
  0.12280000233333332
 T1 Si 0.0 0.789466669 0.272566676
 T1 Si 0.0 0.789466669 0.272566676
 T1 Si 0.0 0.8772000073333333 0.060766666999999996
 T1 Si 0.0 0.8772000073333333 0.060766666999999996
 T1 Si 0.0 0.789466669 0.060766666999999996
 T1 Si 0.0 0.789466669 0.060766666999999996
 T1 Si 0.0 0.8772000073333333 0.272566676
 T1 Si 0.0 0.8772000073333333 0.272566676
 T1 Si 0.12280000233333332 0.7274333336666666 0.0
 T1 Si 0.12280000233333332 0.7274333336666666 0.0
 T1 Si 0.21053334066666665 0.9392333426666666 0.0
 T1 Si 0.21053334066666665 0.9392333426666666 0.0
 T1 Si 0.12280000233333332 0.9392333426666666 0.0
 T1 Si 0.12280000233333332 0.9392333426666666 0.0
 T1 Si 0.21053334066666665 0.7274333336666666 0.0
 T1 Si 0.21053334066666665 0.7274333336666666 0.0
 O1 O 0.3333333333333333 0.7374000003333333
  0.16666666666666666
 O1 O 0.3333333333333333 0.7374000003333333
  0.16666666666666666
 O1 O 0.3333333333333333 0.9292666713333333
  0.16666666666666666
 O1 O 0.3333333333333333 0.9292666713333333
  0.16666666666666666
 O1 O 0.5 0.6666666666666666 0.07073333366666666
 O1 O 0.5 0.6666666666666666 0.07073333366666666
 O1 O 0.5 0.6666666666666666 0.26260000466666666
 O1 O 0.5 0.6666666666666666 0.26260000466666666
 O1 O 0.404066667 0.8333333333333333 0.0
 O1 O 0.404066667 0.8333333333333333 0.0
 O1 O 0.595933338 0.8333333333333333 0.0
 O1 O 0.595933338 0.8333333333333333 0.0
 O1 O 0.404066667 0.6666666666666666 0.16666666666666666
 O1 O 0.404066667 0.6666666666666666 0.16666666666666666
 O1 O 0.595933338 0.6666666666666666 0.16666666666666666
 O1 O 0.595933338 0.6666666666666666 0.16666666666666666
 O1 O 0.3333333333333333 0.8333333333333333
  0.26260000466666666
 O1 O 0.3333333333333333 0.8333333333333333
  0.26260000466666666
 O1 O 0.3333333333333333 0.8333333333333333
  0.07073333366666666
 O1 O 0.3333333333333333 0.8333333333333333
  0.07073333366666666
 O1 O 0.5 0.7374000003333333 0.0
 O1 O 0.5 0.7374000003333333 0.0
 O1 O 0.5 0.9292666713333333 0.0
 O1 O 0.5 0.9292666713333333 0.0
 O2 O 0.37009999899999996 0.7034333323333333 0.112800002
 O2 O 0.6298999986666667 0.9632333319999999
  0.22053333133333333
 O2 O 0.6298999986666667 0.9632333319999999 0.112800002
 O2 O 0.37009999899999996 0.7034333323333333
  0.22053333133333333
 O2 O 0.6298999986666667 0.7034333323333333
  0.22053333133333333
 O2 O 0.37009999899999996 0.9632333319999999 0.112800002
 O2 O 0.37009999899999996 0.9632333319999999
  0.22053333133333333
 O2 O 0.6298999986666667 0.7034333323333333 0.112800002
 O2 O 0.4461333353333333 0.7034333323333333
  0.03676666566666666
 O2 O 0.5538666646666667 0.9632333319999999
  0.29656666533333337
 O2 O 0.4461333353333333 0.9632333319999999
  0.29656666533333337
 O2 O 0.5538666646666667 0.7034333323333333
  0.03676666566666666
 O2 O 0.5538666646666667 0.9632333319999999
  0.03676666566666666
 O2 O 0.4461333353333333 0.7034333323333333
  0.29656666533333337
 O2 O 0.5538666646666667 0.7034333323333333
  0.29656666533333337
 O2 O 0.4461333353333333 0.9632333319999999
  0.03676666566666666
 O2 O 0.37009999899999996 0.7794666686666667
  0.03676666566666666
 O2 O 0.6298999986666667 0.887199998 0.29656666533333337
 O2 O 0.6298999986666667 0.7794666686666667
  0.29656666533333337
 O2 O 0.37009999899999996 0.887199998 0.03676666566666666
 O2 O 0.37009999899999996 0.887199998 0.29656666533333337
 O2 O 0.6298999986666667 0.7794666686666667
  0.03676666566666666
 O2 O 0.6298999986666667 0.887199998 0.03676666566666666
 O2 O 0.37009999899999996 0.7794666686666667
  0.29656666533333337
 O3 O 0.3333333333333333 0.765566667 0.09890000033333333
 O3 O 0.3333333333333333 0.765566667 0.09890000033333333
 O3 O 0.3333333333333333 0.9010999996666667 0.234433333
 O3 O 0.3333333333333333 0.9010999996666667 0.234433333
 O3 O 0.3333333333333333 0.9010999996666667
  0.09890000033333333
 O3 O 0.3333333333333333 0.9010999996666667
  0.09890000033333333
 O3 O 0.3333333333333333 0.765566667 0.234433333
 O3 O 0.3333333333333333 0.765566667 0.234433333
 O3 O 0.43223333366666666 0.6666666666666666
  0.09890000033333333
 O3 O 0.43223333366666666 0.6666666666666666
  0.09890000033333333
 O3 O 0.5677666663333333 0.6666666666666666 0.234433333
 O3 O 0.5677666663333333 0.6666666666666666 0.234433333
 O3 O 0.43223333366666666 0.6666666666666666 0.234433333
 O3 O 0.43223333366666666 0.6666666666666666 0.234433333
 O3 O 0.5677666663333333 0.6666666666666666
  0.09890000033333333
 O3 O 0.5677666663333333 0.6666666666666666
  0.09890000033333333
 O3 O 0.43223333366666666 0.765566667 0.0
 O3 O 0.43223333366666666 0.765566667 0.0
 O3 O 0.5677666663333333 0.9010999996666667 0.0
 O3 O 0.5677666663333333 0.9010999996666667 0.0
 O3 O 0.5677666663333333 0.765566667 0.0
 O3 O 0.5677666663333333 0.765566667 0.0
 O3 O 0.43223333366666666 0.9010999996666667 0.0
 O3 O 0.43223333366666666 0.9010999996666667 0.0
 O2 O 0.6298999986666667 0.7034333323333333 0.112800002
 O2 O 0.37009998166666663 0.7034333323333333 0.112800002
 O2 O 0.6298999986666667 0.9632333319999999
  0.22053333133333333
 O2 O 0.37009998166666663 0.9632333319999999
  0.22053333133333333
 O2 O 0.6298999986666667 0.9632333319999999 0.112800002
 O2 O 0.37009998166666663 0.9632333319999999 0.112800002
 O2 O 0.6298999986666667 0.7034333323333333
  0.22053333133333333
 O2 O 0.37009998166666663 0.7034333323333333
  0.22053333133333333
 O2 O 0.4461333353333333 0.9632333319999999
  0.03676666566666666
 O2 O 0.4461333353333333 0.703433315 0.03676666566666666
 O2 O 0.5538666646666667 0.9632333319999999
  0.29656666533333337
 O2 O 0.5538666646666667 0.703433315 0.29656666533333337
 O2 O 0.4461333353333333 0.9632333319999999
  0.29656666533333337
 O2 O 0.4461333353333333 0.703433315 0.29656666533333337
 O2 O 0.5538666646666667 0.9632333319999999
  0.03676666566666666
 O2 O 0.5538666646666667 0.703433315 0.03676666566666666
 O2 O 0.37009999899999996 0.7794666686666667
  0.29656666533333337
 O2 O 0.37009999899999996 0.7794666686666667
  0.03676664833333333
 O2 O 0.6298999986666667 0.887199998 0.29656666533333337
 O2 O 0.6298999986666667 0.887199998 0.03676664833333333
 O2 O 0.6298999986666667 0.7794666686666667
  0.29656666533333337
 O2 O 0.6298999986666667 0.7794666686666667
  0.03676664833333333
 O2 O 0.37009999899999996 0.887199998 0.29656666533333337
 O2 O 0.37009999899999996 0.887199998 0.03676664833333333
 O2 O 0.37009999899999996 0.9632333319999999
  0.22053333133333333
 O2 O 0.37009999899999996 0.703433315 0.22053333133333333
 O2 O 0.6298999986666667 0.9632333319999999 0.112800002
 O2 O 0.6298999986666667 0.703433315 0.112800002
 O2 O 0.6298999986666667 0.9632333319999999
  0.22053333133333333
 O2 O 0.6298999986666667 0.703433315 0.22053333133333333
 O2 O 0.37009999899999996 0.9632333319999999 0.112800002
 O2 O 0.37009999899999996 0.703433315 0.112800002
 O2 O 0.6298999986666667 0.7794666686666667
  0.29656666533333337
 O2 O 0.37009998166666663 0.7794666686666667
  0.29656666533333337
 O2 O 0.6298999986666667 0.887199998 0.03676666566666666
 O2 O 0.37009998166666663 0.887199998 0.03676666566666666
 O2 O 0.6298999986666667 0.7794666686666667
  0.03676666566666666
 O2 O 0.37009998166666663 0.7794666686666667
  0.03676666566666666
 O2 O 0.6298999986666667 0.887199998 0.29656666533333337
 O2 O 0.37009998166666663 0.887199998 0.29656666533333337
 O2 O 0.4461333353333333 0.7034333323333333
  0.29656666533333337
 O2 O 0.4461333353333333 0.7034333323333333
  0.03676664833333333
 O2 O 0.5538666646666667 0.9632333319999999
  0.29656666533333337
 O2 O 0.5538666646666667 0.9632333319999999
  0.03676664833333333
 O2 O 0.4461333353333333 0.9632333319999999
  0.29656666533333337
 O2 O 0.4461333353333333 0.9632333319999999
  0.03676664833333333
 O2 O 0.5538666646666667 0.7034333323333333
  0.29656666533333337
 O2 O 0.5538666646666667 0.7034333323333333
  0.03676664833333333
 T1 Si 0.3333333333333333 0.7274333336666666
  0.12280000233333332
 T1 Si 0.3333333333333333 0.7274333336666666
  0.12280000233333332
 T1 Si 0.3333333333333333 0.9392333426666666
  0.21053334066666665
 T1 Si 0.3333333333333333 0.9392333426666666
  0.21053334066666665
 T1 Si 0.3333333333333333 0.9392333426666666
  0.12280000233333332
 T1 Si 0.3333333333333333 0.9392333426666666
  0.12280000233333332
 T1 Si 0.3333333333333333 0.7274333336666666
  0.21053334066666665
 T1 Si 0.3333333333333333 0.7274333336666666
  0.21053334066666665
 T1 Si 0.45613333566666664 0.6666666666666666
  0.060766666999999996
 T1 Si 0.45613333566666664 0.6666666666666666
  0.060766666999999996
 T1 Si 0.543866674 0.6666666666666666 0.272566676
 T1 Si 0.543866674 0.6666666666666666 0.272566676
 T1 Si 0.45613333566666664 0.6666666666666666 0.272566676
 T1 Si 0.45613333566666664 0.6666666666666666 0.272566676
 T1 Si 0.543866674 0.6666666666666666 0.060766666999999996
 T1 Si 0.543866674 0.6666666666666666 0.060766666999999996
 T1 Si 0.3941000003333333 0.789466669 0.0
 T1 Si 0.3941000003333333 0.789466669 0.0
 T1 Si 0.6059000093333333 0.8772000073333333 0.0
 T1 Si 0.6059000093333333 0.8772000073333333 0.0
 T1 Si 0.6059000093333333 0.789466669 0.0
 T1 Si 0.6059000093333333 0.789466669 0.0
 T1 Si 0.3941000003333333 0.8772000073333333 0.0
 T1 Si 0.3941000003333333 0.8772000073333333 0.0
 T1 Si 0.3941000003333333 0.6666666666666666
  0.21053334066666665
 T1 Si 0.3941000003333333 0.6666666666666666
  0.21053334066666665
 T1 Si 0.6059000093333333 0.6666666666666666
  0.12280000233333332
 T1 Si 0.6059000093333333 0.6666666666666666
  0.12280000233333332
 T1 Si 0.6059000093333333 0.6666666666666666
  0.21053334066666665
 T1 Si 0.6059000093333333 0.6666666666666666
  0.21053334066666665
 T1 Si 0.3941000003333333 0.6666666666666666
  0.12280000233333332
 T1 Si 0.3941000003333333 0.6666666666666666
  0.12280000233333332
 T1 Si 0.3333333333333333 0.789466669 0.272566676
 T1 Si 0.3333333333333333 0.789466669 0.272566676
 T1 Si 0.3333333333333333 0.8772000073333333
  0.060766666999999996
 T1 Si 0.3333333333333333 0.8772000073333333
  0.060766666999999996
 T1 Si 0.3333333333333333 0.789466669 0.060766666999999996
 T1 Si 0.3333333333333333 0.789466669 0.060766666999999996
 T1 Si 0.3333333333333333 0.8772000073333333 0.272566676
 T1 Si 0.3333333333333333 0.8772000073333333 0.272566676
 T1 Si 0.45613333566666664 0.7274333336666666 0.0
 T1 Si 0.45613333566666664 0.7274333336666666 0.0
 T1 Si 0.543866674 0.9392333426666666 0.0
 T1 Si 0.543866674 0.9392333426666666 0.0
 T1 Si 0.45613333566666664 0.9392333426666666 0.0
 T1 Si 0.45613333566666664 0.9392333426666666 0.0
 T1 Si 0.543866674 0.7274333336666666 0.0
 T1 Si 0.543866674 0.7274333336666666 0.0
 O1 O 0.6666666666666666 0.7374000003333333
  0.16666666666666666
 O1 O 0.6666666666666666 0.7374000003333333
  0.16666666666666666
 O1 O 0.6666666666666666 0.9292666713333333
  0.16666666666666666
 O1 O 0.6666666666666666 0.9292666713333333
  0.16666666666666666
 O1 O 0.8333333333333333 0.6666666666666666
  0.07073333366666666
 O1 O 0.8333333333333333 0.6666666666666666
  0.07073333366666666
 O1 O 0.8333333333333333 0.6666666666666666
  0.26260000466666666
 O1 O 0.8333333333333333 0.6666666666666666
  0.26260000466666666
 O1 O 0.7374000003333333 0.8333333333333333 0.0
 O1 O 0.7374000003333333 0.8333333333333333 0.0
 O1 O 0.9292666713333333 0.8333333333333333 0.0
 O1 O 0.9292666713333333 0.8333333333333333 0.0
 O1 O 0.7374000003333333 0.6666666666666666
  0.16666666666666666
 O1 O 0.7374000003333333 0.6666666666666666
  0.16666666666666666
 O1 O 0.9292666713333333 0.6666666666666666
  0.16666666666666666
 O1 O 0.9292666713333333 0.6666666666666666
  0.16666666666666666
 O1 O 0.6666666666666666 0.8333333333333333
  0.26260000466666666
 O1 O 0.6666666666666666 0.8333333333333333
  0.26260000466666666
 O1 O 0.6666666666666666 0.8333333333333333
  0.07073333366666666
 O1 O 0.6666666666666666 0.8333333333333333
  0.07073333366666666
 O1 O 0.8333333333333333 0.7374000003333333 0.0
 O1 O 0.8333333333333333 0.7374000003333333 0.0
 O1 O 0.8333333333333333 0.9292666713333333 0.0
 O1 O 0.8333333333333333 0.9292666713333333 0.0
 O2 O 0.7034333323333333 0.7034333323333333 0.112800002
 O2 O 0.9632333319999999 0.9632333319999999
  0.22053333133333333
 O2 O 0.9632333319999999 0.9632333319999999 0.112800002
 O2 O 0.7034333323333333 0.7034333323333333
  0.22053333133333333
 O2 O 0.9632333319999999 0.7034333323333333
  0.22053333133333333
 O2 O 0.7034333323333333 0.9632333319999999 0.112800002
 O2 O 0.7034333323333333 0.9632333319999999
  0.22053333133333333
 O2 O 0.9632333319999999 0.7034333323333333 0.112800002
 O2 O 0.7794666686666667 0.7034333323333333
  0.03676666566666666
 O2 O 0.887199998 0.9632333319999999 0.29656666533333337
 O2 O 0.7794666686666667 0.9632333319999999
  0.29656666533333337
 O2 O 0.887199998 0.7034333323333333 0.03676666566666666
 O2 O 0.887199998 0.9632333319999999 0.03676666566666666
 O2 O 0.7794666686666667 0.7034333323333333
  0.29656666533333337
 O2 O 0.887199998 0.7034333323333333 0.29656666533333337
 O2 O 0.7794666686666667 0.9632333319999999
  0.03676666566666666
 O2 O 0.7034333323333333 0.7794666686666667
  0.03676666566666666
 O2 O 0.9632333319999999 0.887199998 0.29656666533333337
 O2 O 0.9632333319999999 0.7794666686666667
  0.29656666533333337
 O2 O 0.7034333323333333 0.887199998 0.03676666566666666
 O2 O 0.7034333323333333 0.887199998 0.29656666533333337
 O2 O 0.9632333319999999 0.7794666686666667
  0.03676666566666666
 O2 O 0.9632333319999999 0.887199998 0.03676666566666666
 O2 O 0.7034333323333333 0.7794666686666667
  0.29656666533333337
 O3 O 0.6666666666666666 0.765566667 0.09890000033333333
 O3 O 0.6666666666666666 0.765566667 0.09890000033333333
 O3 O 0.6666666666666666 0.9010999996666667 0.234433333
 O3 O 0.6666666666666666 0.9010999996666667 0.234433333
 O3 O 0.6666666666666666 0.9010999996666667
  0.09890000033333333
 O3 O 0.6666666666666666 0.9010999996666667
  0.09890000033333333
 O3 O 0.6666666666666666 0.765566667 0.234433333
 O3 O 0.6666666666666666 0.765566667 0.234433333
 O3 O 0.765566667 0.6666666666666666 0.09890000033333333
 O3 O 0.765566667 0.6666666666666666 0.09890000033333333
 O3 O 0.9010999996666667 0.6666666666666666 0.234433333
 O3 O 0.9010999996666667 0.6666666666666666 0.234433333
 O3 O 0.765566667 0.6666666666666666 0.234433333
 O3 O 0.765566667 0.6666666666666666 0.234433333
 O3 O 0.9010999996666667 0.6666666666666666
  0.09890000033333333
 O3 O 0.9010999996666667 0.6666666666666666
  0.09890000033333333
 O3 O 0.765566667 0.765566667 0.0
 O3 O 0.765566667 0.765566667 0.0
 O3 O 0.9010999996666667 0.9010999996666667 0.0
 O3 O 0.9010999996666667 0.9010999996666667 0.0
 O3 O 0.9010999996666667 0.765566667 0.0
 O3 O 0.9010999996666667 0.765566667 0.0
 O3 O 0.765566667 0.9010999996666667 0.0
 O3 O 0.765566667 0.9010999996666667 0.0
 O2 O 0.9632333319999999 0.7034333323333333 0.112800002
 O2 O 0.703433315 0.7034333323333333 0.112800002
 O2 O 0.9632333319999999 0.9632333319999999
  0.22053333133333333
 O2 O 0.703433315 0.9632333319999999 0.22053333133333333
 O2 O 0.9632333319999999 0.9632333319999999 0.112800002
 O2 O 0.703433315 0.9632333319999999 0.112800002
 O2 O 0.9632333319999999 0.7034333323333333
  0.22053333133333333
 O2 O 0.703433315 0.7034333323333333 0.22053333133333333
 O2 O 0.7794666686666667 0.9632333319999999
  0.03676666566666666
 O2 O 0.7794666686666667 0.703433315 0.03676666566666666
 O2 O 0.887199998 0.9632333319999999 0.29656666533333337
 O2 O 0.887199998 0.703433315 0.29656666533333337
 O2 O 0.7794666686666667 0.9632333319999999
  0.29656666533333337
 O2 O 0.7794666686666667 0.703433315 0.29656666533333337
 O2 O 0.887199998 0.9632333319999999 0.03676666566666666
 O2 O 0.887199998 0.703433315 0.03676666566666666
 O2 O 0.7034333323333333 0.7794666686666667
  0.29656666533333337
 O2 O 0.7034333323333333 0.7794666686666667
  0.03676664833333333
 O2 O 0.9632333319999999 0.887199998 0.29656666533333337
 O2 O 0.9632333319999999 0.887199998 0.03676664833333333
 O2 O 0.9632333319999999 0.7794666686666667
  0.29656666533333337
 O2 O 0.9632333319999999 0.7794666686666667
  0.03676664833333333
 O2 O 0.7034333323333333 0.887199998 0.29656666533333337
 O2 O 0.7034333323333333 0.887199998 0.03676664833333333
 O2 O 0.7034333323333333 0.9632333319999999
  0.22053333133333333
 O2 O 0.7034333323333333 0.703433315 0.22053333133333333
 O2 O 0.9632333319999999 0.9632333319999999 0.112800002
 O2 O 0.9632333319999999 0.703433315 0.112800002
 O2 O 0.9632333319999999 0.9632333319999999
  0.22053333133333333
 O2 O 0.9632333319999999 0.703433315 0.22053333133333333
 O2 O 0.7034333323333333 0.9632333319999999 0.112800002
 O2 O 0.7034333323333333 0.703433315 0.112800002
 O2 O 0.9632333319999999 0.7794666686666667
  0.29656666533333337
 O2 O 0.703433315 0.7794666686666667 0.29656666533333337
 O2 O 0.9632333319999999 0.887199998 0.03676666566666666
 O2 O 0.703433315 0.887199998 0.03676666566666666
 O2 O 0.9632333319999999 0.7794666686666667
  0.03676666566666666
 O2 O 0.703433315 0.7794666686666667 0.03676666566666666
 O2 O 0.9632333319999999 0.887199998 0.29656666533333337
 O2 O 0.703433315 0.887199998 0.29656666533333337
 O2 O 0.7794666686666667 0.7034333323333333
  0.29656666533333337
 O2 O 0.7794666686666667 0.7034333323333333
  0.03676664833333333
 O2 O 0.887199998 0.9632333319999999 0.29656666533333337
 O2 O 0.887199998 0.9632333319999999 0.03676664833333333
 O2 O 0.7794666686666667 0.9632333319999999
  0.29656666533333337
 O2 O 0.7794666686666667 0.9632333319999999
  0.03676664833333333
 O2 O 0.887199998 0.7034333323333333 0.29656666533333337
 O2 O 0.887199998 0.7034333323333333 0.03676664833333333
 T1 Si 0.6666666666666666 0.7274333336666666
  0.12280000233333332
 T1 Si 0.6666666666666666 0.7274333336666666
  0.12280000233333332
 T1 Si 0.6666666666666666 0.9392333426666666
  0.21053334066666665
 T1 Si 0.6666666666666666 0.9392333426666666
  0.21053334066666665
 T1 Si 0.6666666666666666 0.9392333426666666
  0.12280000233333332
 T1 Si 0.6666666666666666 0.9392333426666666
  0.12280000233333332
 T1 Si 0.6666666666666666 0.7274333336666666
  0.21053334066666665
 T1 Si 0.6666666666666666 0.7274333336666666
  0.21053334066666665
 T1 Si 0.789466669 0.6666666666666666 0.060766666999999996
 T1 Si 0.789466669 0.6666666666666666 0.060766666999999996
 T1 Si 0.8772000073333333 0.6666666666666666 0.272566676
 T1 Si 0.8772000073333333 0.6666666666666666 0.272566676
 T1 Si 0.789466669 0.6666666666666666 0.272566676
 T1 Si 0.789466669 0.6666666666666666 0.272566676
 T1 Si 0.8772000073333333 0.6666666666666666
  0.060766666999999996
 T1 Si 0.8772000073333333 0.6666666666666666
  0.060766666999999996
 T1 Si 0.7274333336666666 0.789466669 0.0
 T1 Si 0.7274333336666666 0.789466669 0.0
 T1 Si 0.9392333426666666 0.8772000073333333 0.0
 T1 Si 0.9392333426666666 0.8772000073333333 0.0
 T1 Si 0.9392333426666666 0.789466669 0.0
 T1 Si 0.9392333426666666 0.789466669 0.0
 T1 Si 0.7274333336666666 0.8772000073333333 0.0
 T1 Si 0.7274333336666666 0.8772000073333333 0.0
 T1 Si 0.7274333336666666 0.6666666666666666
  0.21053334066666665
 T1 Si 0.7274333336666666 0.6666666666666666
  0.21053334066666665
 T1 Si 0.9392333426666666 0.6666666666666666
  0.12280000233333332
 T1 Si 0.9392333426666666 0.6666666666666666
  0.12280000233333332
 T1 Si 0.9392333426666666 0.6666666666666666
  0.21053334066666665
 T1 Si 0.9392333426666666 0.6666666666666666
  0.21053334066666665
 T1 Si 0.7274333336666666 0.6666666666666666
  0.12280000233333332
 T1 Si 0.7274333336666666 0.6666666666666666
  0.12280000233333332
 T1 Si 0.6666666666666666 0.789466669 0.272566676
 T1 Si 0.6666666666666666 0.789466669 0.272566676
 T1 Si 0.6666666666666666 0.8772000073333333
  0.060766666999999996
 T1 Si 0.6666666666666666 0.8772000073333333
  0.060766666999999996
 T1 Si 0.6666666666666666 0.789466669 0.060766666999999996
 T1 Si 0.6666666666666666 0.789466669 0.060766666999999996
 T1 Si 0.6666666666666666 0.8772000073333333 0.272566676
 T1 Si 0.6666666666666666 0.8772000073333333 0.272566676
 T1 Si 0.789466669 0.7274333336666666 0.0
 T1 Si 0.789466669 0.7274333336666666 0.0
 T1 Si 0.8772000073333333 0.9392333426666666 0.0
 T1 Si 0.8772000073333333 0.9392333426666666 0.0
 T1 Si 0.789466669 0.9392333426666666 0.0
 T1 Si 0.789466669 0.9392333426666666 0.0
 T1 Si 0.8772000073333333 0.7274333336666666 0.0
 T1 Si 0.8772000073333333 0.7274333336666666 0.0
 O1 O 0.0 0.07073333366666666 0.5
 O1 O 0.0 0.07073333366666666 0.5
 O1 O 0.0 0.26260000466666666 0.5
 O1 O 0.0 0.26260000466666666 0.5
 O1 O 0.16666666666666666 0.0 0.404066667
 O1 O 0.16666666666666666 0.0 0.404066667
 O1 O 0.16666666666666666 0.0 0.595933338
 O1 O 0.16666666666666666 0.0 0.595933338
 O1 O 0.07073333366666666 0.16666666666666666
  0.3333333333333333
 O1 O 0.07073333366666666 0.16666666666666666
  0.3333333333333333
 O1 O 0.26260000466666666 0.16666666666666666
  0.3333333333333333
 O1 O 0.26260000466666666 0.16666666666666666
  0.3333333333333333
 O1 O 0.07073333366666666 0.0 0.5
 O1 O 0.07073333366666666 0.0 0.5
 O1 O 0.26260000466666666 0.0 0.5
 O1 O 0.26260000466666666 0.0 0.5
 O1 O 0.0 0.16666666666666666 0.595933338
 O1 O 0.0 0.16666666666666666 0.595933338
 O1 O 0.0 0.16666666666666666 0.404066667
 O1 O 0.0 0.16666666666666666 0.404066667
 O1 O 0.16666666666666666 0.07073333366666666
  0.3333333333333333
 O1 O 0.16666666666666666 0.07073333366666666
  0.3333333333333333
 O1 O 0.16666666666666666 0.26260000466666666
  0.3333333333333333
 O1 O 0.16666666666666666 0.26260000466666666
  0.3333333333333333
 O2 O 0.03676666566666666 0.03676666566666666
  0.4461333353333333
 O2 O 0.29656666533333337 0.29656666533333337
  0.5538666646666667
 O2 O 0.29656666533333337 0.29656666533333337
  0.4461333353333333
 O2 O 0.03676666566666666 0.03676666566666666
  0.5538666646666667
 O2 O 0.29656666533333337 0.03676666566666666
  0.5538666646666667
 O2 O 0.03676666566666666 0.29656666533333337
  0.4461333353333333
 O2 O 0.03676666566666666 0.29656666533333337
  0.5538666646666667
 O2 O 0.29656666533333337 0.03676666566666666
  0.4461333353333333
 O2 O 0.112800002 0.03676666566666666 0.37009999899999996
 O2 O 0.22053333133333333 0.29656666533333337
  0.6298999986666667
 O2 O 0.112800002 0.29656666533333337 0.6298999986666667
 O2 O 0.22053333133333333 0.03676666566666666
  0.37009999899999996
 O2 O 0.22053333133333333 0.29656666533333337
  0.37009999899999996
 O2 O 0.112800002 0.03676666566666666 0.6298999986666667
 O2 O 0.22053333133333333 0.03676666566666666
  0.6298999986666667
 O2 O 0.112800002 0.29656666533333337 0.37009999899999996
 O2 O 0.03676666566666666 0.112800002 0.37009999899999996
 O2 O 0.29656666533333337 0.22053333133333333
  0.6298999986666667
 O2 O 0.29656666533333337 0.112800002 0.6298999986666667
 O2 O 0.03676666566666666 0.22053333133333333
  0.37009999899999996
 O2 O 0.03676666566666666 0.22053333133333333
  0.6298999986666667
 O2 O 0.29656666533333337 0.112800002 0.37009999899999996
 O2 O 0.29656666533333337 0.22053333133333333
  0.37009999899999996
 O2 O 0.03676666566666666 0.112800002 0.6298999986666667
 O3 O 0.0 0.09890000033333333 0.43223333366666666
 O3 O 0.0 0.09890000033333333 0.43223333366666666
 O3 O 0.0 0.234433333 0.5677666663333333
 O3 O 0.0 0.234433333 0.5677666663333333
 O3 O 0.0 0.234433333 0.43223333366666666
 O3 O 0.0 0.234433333 0.43223333366666666
 O3 O 0.0 0.09890000033333333 0.5677666663333333
 O3 O 0.0 0.09890000033333333 0.5677666663333333
 O3 O 0.09890000033333333 0.0 0.43223333366666666
 O3 O 0.09890000033333333 0.0 0.43223333366666666
 O3 O 0.234433333 0.0 0.5677666663333333
 O3 O 0.234433333 0.0 0.5677666663333333
 O3 O 0.09890000033333333 0.0 0.5677666663333333
 O3 O 0.09890000033333333 0.0 0.5677666663333333
 O3 O 0.234433333 0.0 0.43223333366666666
 O3 O 0.234433333 0.0 0.43223333366666666
 O3 O 0.09890000033333333 0.09890000033333333
  0.3333333333333333
 O3 O 0.09890000033333333 0.09890000033333333
  0.3333333333333333
 O3 O 0.234433333 0.234433333 0.3333333333333333
 O3 O 0.234433333 0.234433333 0.3333333333333333
 O3 O 0.234433333 0.09890000033333333 0.3333333333333333
 O3 O 0.234433333 0.09890000033333333 0.3333333333333333
 O3 O 0.09890000033333333 0.234433333 0.3333333333333333
 O3 O 0.09890000033333333 0.234433333 0.3333333333333333
 O2 O 0.29656666533333337 0.03676666566666666
  0.4461333353333333
 O2 O 0.03676664833333333 0.03676666566666666
  0.4461333353333333
 O2 O 0.29656666533333337 0.29656666533333337
  0.5538666646666667
 O2 O 0.03676664833333333 0.29656666533333337
  0.5538666646666667
 O2 O 0.29656666533333337 0.29656666533333337
  0.4461333353333333
 O2 O 0.03676664833333333 0.29656666533333337
  0.4461333353333333
 O2 O 0.29656666533333337 0.03676666566666666
  0.5538666646666667
 O2 O 0.03676664833333333 0.03676666566666666
  0.5538666646666667
 O2 O 0.112800002 0.29656666533333337 0.37009999899999996
 O2 O 0.112800002 0.03676664833333333 0.37009999899999996
 O2 O 0.22053333133333333 0.29656666533333337
  0.6298999986666667
 O2 O 0.22053333133333333 0.03676664833333333
  0.6298999986666667
 O2 O 0.112800002 0.29656666533333337 0.6298999986666667
 O2 O 0.112800002 0.03676664833333333 0.6298999986666667
 O2 O 0.22053333133333333 0.29656666533333337
  0.37009999899999996
 O2 O 0.22053333133333333 0.03676664833333333
  0.37009999899999996
 O2 O 0.03676666566666666 0.112800002 0.6298999986666667
 O2 O 0.03676666566666666 0.112800002 0.37009998166666663
 O2 O 0.29656666533333337 0.22053333133333333
  0.6298999986666667
 O2 O 0.29656666533333337 0.22053333133333333
  0.37009998166666663
 O2 O 0.29656666533333337 0.112800002 0.6298999986666667
 O2 O 0.29656666533333337 0.112800002 0.37009998166666663
 O2 O 0.03676666566666666 0.22053333133333333
  0.6298999986666667
 O2 O 0.03676666566666666 0.22053333133333333
  0.37009998166666663
 O2 O 0.03676666566666666 0.29656666533333337
  0.5538666646666667
 O2 O 0.03676666566666666 0.03676664833333333
  0.5538666646666667
 O2 O 0.29656666533333337 0.29656666533333337
  0.4461333353333333
 O2 O 0.29656666533333337 0.03676664833333333
  0.4461333353333333
 O2 O 0.29656666533333337 0.29656666533333337
  0.5538666646666667
 O2 O 0.29656666533333337 0.03676664833333333
  0.5538666646666667
 O2 O 0.03676666566666666 0.29656666533333337
  0.4461333353333333
 O2 O 0.03676666566666666 0.03676664833333333
  0.4461333353333333
 O2 O 0.29656666533333337 0.112800002 0.6298999986666667
 O2 O 0.03676664833333333 0.112800002 0.6298999986666667
 O2 O 0.29656666533333337 0.22053333133333333
  0.37009999899999996
 O2 O 0.03676664833333333 0.22053333133333333
  0.37009999899999996
 O2 O 0.29656666533333337 0.112800002 0.37009999899999996
 O2 O 0.03676664833333333 0.112800002 0.37009999899999996
 O2 O 0.29656666533333337 0.22053333133333333
  0.6298999986666667
 O2 O 0.03676664833333333 0.22053333133333333
  0.6298999986666667
 O2 O 0.112800002 0.03676666566666666 0.6298999986666667
 O2 O 0.112800002 0.03676666566666666 0.37009998166666663
 O2 O 0.22053333133333333 0.29656666533333337
  0.6298999986666667
 O2 O 0.22053333133333333 0.29656666533333337
  0.37009998166666663
 O2 O 0.112800002 0.29656666533333337 0.6298999986666667
 O2 O 0.112800002 0.29656666533333337 0.37009998166666663
 O2 O 0.22053333133333333 0.03676666566666666
  0.6298999986666667
 O2 O 0.22053333133333333 0.03676666566666666
  0.37009998166666663
 T1 Si 0.0 0.060766666999999996 0.45613333566666664
 T1 Si 0.0 0.060766666999999996 0.45613333566666664
 T1 Si 0.0 0.272566676 0.543866674
 T1 Si 0.0 0.272566676 0.543866674
 T1 Si 0.0 0.272566676 0.45613333566666664
 T1 Si 0.0 0.272566676 0.45613333566666664
 T1 Si 0.0 0.060766666999999996 0.543866674
 T1 Si 0.0 0.060766666999999996 0.543866674
 T1 Si 0.12280000233333332 0.0 0.3941000003333333
 T1 Si 0.12280000233333332 0.0 0.3941000003333333
 T1 Si 0.21053334066666665 0.0 0.6059000093333333
 T1 Si 0.21053334066666665 0.0 0.6059000093333333
 T1 Si 0.12280000233333332 0.0 0.6059000093333333
 T1 Si 0.12280000233333332 0.0 0.6059000093333333
 T1 Si 0.21053334066666665 0.0 0.3941000003333333
 T1 Si 0.21053334066666665 0.0 0.3941000003333333
 T1 Si 0.060766666999999996 0.12280000233333332
  0.3333333333333333
 T1 Si 0.060766666999999996 0.12280000233333332
  0.3333333333333333
 T1 Si 0.272566676 0.21053334066666665 0.3333333333333333
 T1 Si 0.272566676 0.21053334066666665 0.3333333333333333
 T1 Si 0.272566676 0.12280000233333332 0.3333333333333333
 T1 Si 0.272566676 0.12280000233333332 0.3333333333333333
 T1 Si 0.060766666999999996 0.21053334066666665
  0.3333333333333333
 T1 Si 0.060766666999999996 0.21053334066666665
  0.3333333333333333
 T1 Si 0.060766666999999996 0.0 0.543866674
 T1 Si 0.060766666999999996 0.0 0.543866674
 T1 Si 0.272566676 0.0 0.45613333566666664
 T1 Si 0.272566676 0.0 0.45613333566666664
 T1 Si 0.272566676 0.0 0.543866674
 T1 Si 0.272566676 0.0 0.543866674
 T1 Si 0.060766666999999996 0.0 0.45613333566666664
 T1 Si 0.060766666999999996 0.0 0.45613333566666664
 T1 Si 0.0 0.12280000233333332 0.6059000093333333
 T1 Si 0.0 0.12280000233333332 0.6059000093333333
 T1 Si 0.0 0.21053334066666665 0.3941000003333333
 T1 Si 0.0 0.21053334066666665 0.3941000003333333
 T1 Si 0.0 0.12280000233333332 0.3941000003333333
 T1 Si 0.0 0.12280000233333332 0.3941000003333333
 T1 Si 0.0 0.21053334066666665 0.6059000093333333
 T1 Si 0.0 0.21053334066666665 0.6059000093333333
 T1 Si 0.12280000233333332 0.060766666999999996
  0.3333333333333333
 T1 Si 0.12280000233333332 0.060766666999999996
  0.3333333333333333
 T1 Si 0.21053334066666665 0.272566676 0.3333333333333333
 T1 Si 0.21053334066666665 0.272566676 0.3333333333333333
 T1 Si 0.12280000233333332 0.272566676 0.3333333333333333
 T1 Si 0.12280000233333332 0.272566676 0.3333333333333333
 T1 Si 0.21053334066666665 0.060766666999999996
  0.3333333333333333
 T1 Si 0.21053334066666665 0.060766666999999996
  0.3333333333333333
 O1 O 0.3333333333333333 0.07073333366666666 0.5
 O1 O 0.3333333333333333 0.07073333366666666 0.5
 O1 O 0.3333333333333333 0.26260000466666666 0.5
 O1 O 0.3333333333333333 0.26260000466666666 0.5
 O1 O 0.5 0.0 0.404066667
 O1 O 0.5 0.0 0.404066667
 O1 O 0.5 0.0 0.595933338
 O1 O 0.5 0.0 0.595933338
 O1 O 0.404066667 0.16666666666666666 0.3333333333333333
 O1 O 0.404066667 0.16666666666666666 0.3333333333333333
 O1 O 0.595933338 0.16666666666666666 0.3333333333333333
 O1 O 0.595933338 0.16666666666666666 0.3333333333333333
 O1 O 0.404066667 0.0 0.5
 O1 O 0.404066667 0.0 0.5
 O1 O 0.595933338 0.0 0.5
 O1 O 0.595933338 0.0 0.5
 O1 O 0.3333333333333333 0.16666666666666666 0.595933338
 O1 O 0.3333333333333333 0.16666666666666666 0.595933338
 O1 O 0.3333333333333333 0.16666666666666666 0.404066667
 O1 O 0.3333333333333333 0.16666666666666666 0.404066667
 O1 O 0.5 0.07073333366666666 0.3333333333333333
 O1 O 0.5 0.07073333366666666 0.3333333333333333
 O1 O 0.5 0.26260000466666666 0.3333333333333333
 O1 O 0.5 0.26260000466666666 0.3333333333333333
 O2 O 0.37009999899999996 0.03676666566666666
  0.4461333353333333
 O2 O 0.6298999986666667 0.29656666533333337
  0.5538666646666667
 O2 O 0.6298999986666667 0.29656666533333337
  0.4461333353333333
 O2 O 0.37009999899999996 0.03676666566666666
  0.5538666646666667
 O2 O 0.6298999986666667 0.03676666566666666
  0.5538666646666667
 O2 O 0.37009999899999996 0.29656666533333337
  0.4461333353333333
 O2 O 0.37009999899999996 0.29656666533333337
  0.5538666646666667
 O2 O 0.6298999986666667 0.03676666566666666
  0.4461333353333333
 O2 O 0.4461333353333333 0.03676666566666666
  0.37009999899999996
 O2 O 0.5538666646666667 0.29656666533333337
  0.6298999986666667
 O2 O 0.4461333353333333 0.29656666533333337
  0.6298999986666667
 O2 O 0.5538666646666667 0.03676666566666666
  0.37009999899999996
 O2 O 0.5538666646666667 0.29656666533333337
  0.37009999899999996
 O2 O 0.4461333353333333 0.03676666566666666
  0.6298999986666667
 O2 O 0.5538666646666667 0.03676666566666666
  0.6298999986666667
 O2 O 0.4461333353333333 0.29656666533333337
  0.37009999899999996
 O2 O 0.37009999899999996 0.112800002 0.37009999899999996
 O2 O 0.6298999986666667 0.22053333133333333
  0.6298999986666667
 O2 O 0.6298999986666667 0.112800002 0.6298999986666667
 O2 O 0.37009999899999996 0.22053333133333333
  0.37009999899999996
 O2 O 0.37009999899999996 0.22053333133333333
  0.6298999986666667
 O2 O 0.6298999986666667 0.112800002 0.37009999899999996
 O2 O 0.6298999986666667 0.22053333133333333
  0.37009999899999996
 O2 O 0.37009999899999996 0.112800002 0.6298999986666667
 O3 O 0.3333333333333333 0.09890000033333333
  0.43223333366666666
 O3 O 0.3333333333333333 0.09890000033333333
  0.43223333366666666
 O3 O 0.3333333333333333 0.234433333 0.5677666663333333
 O3 O 0.3333333333333333 0.234433333 0.5677666663333333
 O3 O 0.3333333333333333 0.234433333 0.43223333366666666
 O3 O 0.3333333333333333 0.234433333 0.43223333366666666
 O3 O 0.3333333333333333 0.09890000033333333
  0.5677666663333333
 O3 O 0.3333333333333333 0.09890000033333333
  0.5677666663333333
 O3 O 0.43223333366666666 0.0 0.43223333366666666
 O3 O 0.43223333366666666 0.0 0.43223333366666666
 O3 O 0.5677666663333333 0.0 0.5677666663333333
 O3 O 0.5677666663333333 0.0 0.5677666663333333
 O3 O 0.43223333366666666 0.0 0.5677666663333333
 O3 O 0.43223333366666666 0.0 0.5677666663333333
 O3 O 0.5677666663333333 0.0 0.43223333366666666
 O3 O 0.5677666663333333 0.0 0.43223333366666666
 O3 O 0.43223333366666666 0.09890000033333333
  0.3333333333333333
 O3 O 0.43223333366666666 0.09890000033333333
  0.3333333333333333
 O3 O 0.5677666663333333 0.234433333 0.3333333333333333
 O3 O 0.5677666663333333 0.234433333 0.3333333333333333
 O3 O 0.5677666663333333 0.09890000033333333
  0.3333333333333333
 O3 O 0.5677666663333333 0.09890000033333333
  0.3333333333333333
 O3 O 0.43223333366666666 0.234433333 0.3333333333333333
 O3 O 0.43223333366666666 0.234433333 0.3333333333333333
 O2 O 0.6298999986666667 0.03676666566666666
  0.4461333353333333
 O2 O 0.37009998166666663 0.03676666566666666
  0.4461333353333333
 O2 O 0.6298999986666667 0.29656666533333337
  0.5538666646666667
 O2 O 0.37009998166666663 0.29656666533333337
  0.5538666646666667
 O2 O 0.6298999986666667 0.29656666533333337
  0.4461333353333333
 O2 O 0.37009998166666663 0.29656666533333337
  0.4461333353333333
 O2 O 0.6298999986666667 0.03676666566666666
  0.5538666646666667
 O2 O 0.37009998166666663 0.03676666566666666
  0.5538666646666667
 O2 O 0.4461333353333333 0.29656666533333337
  0.37009999899999996
 O2 O 0.4461333353333333 0.03676664833333333
  0.37009999899999996
 O2 O 0.5538666646666667 0.29656666533333337
  0.6298999986666667
 O2 O 0.5538666646666667 0.03676664833333333
  0.6298999986666667
 O2 O 0.4461333353333333 0.29656666533333337
  0.6298999986666667
 O2 O 0.4461333353333333 0.03676664833333333
  0.6298999986666667
 O2 O 0.5538666646666667 0.29656666533333337
  0.37009999899999996
 O2 O 0.5538666646666667 0.03676664833333333
  0.37009999899999996
 O2 O 0.37009999899999996 0.112800002 0.6298999986666667
 O2 O 0.37009999899999996 0.112800002 0.37009998166666663
 O2 O 0.6298999986666667 0.22053333133333333
  0.6298999986666667
 O2 O 0.6298999986666667 0.22053333133333333
  0.37009998166666663
 O2 O 0.6298999986666667 0.112800002 0.6298999986666667
 O2 O 0.6298999986666667 0.112800002 0.37009998166666663
 O2 O 0.37009999899999996 0.22053333133333333
  0.6298999986666667
 O2 O 0.37009999899999996 0.22053333133333333
  0.37009998166666663
 O2 O 0.37009999899999996 0.29656666533333337
  0.5538666646666667
 O2 O 0.37009999899999996 0.03676664833333333
  0.5538666646666667
 O2 O 0.6298999986666667 0.29656666533333337
  0.4461333353333333
 O2 O 0.6298999986666667 0.03676664833333333
  0.4461333353333333
 O2 O 0.6298999986666667 0.29656666533333337
  0.5538666646666667
 O2 O 0.6298999986666667 0.03676664833333333
  0.5538666646666667
 O2 O 0.37009999899999996 0.29656666533333337
  0.4461333353333333
 O2 O 0.37009999899999996 0.03676664833333333
  0.4461333353333333
 O2 O 0.6298999986666667 0.112800002 0.6298999986666667
 O2 O 0.37009998166666663 0.112800002 0.6298999986666667
 O2 O 0.6298999986666667 0.22053333133333333
  0.37009999899999996
 O2 O 0.37009998166666663 0.22053333133333333
  0.37009999899999996
 O2 O 0.6298999986666667 0.112800002 0.37009999899999996
 O2 O 0.37009998166666663 0.112800002 0.37009999899999996
 O2 O 0.6298999986666667 0.22053333133333333
  0.6298999986666667
 O2 O 0.37009998166666663 0.22053333133333333
  0.6298999986666667
 O2 O 0.4461333353333333 0.03676666566666666
  0.6298999986666667
 O2 O 0.4461333353333333 0.03676666566666666
  0.37009998166666663
 O2 O 0.5538666646666667 0.29656666533333337
  0.6298999986666667
 O2 O 0.5538666646666667 0.29656666533333337
  0.37009998166666663
 O2 O 0.4461333353333333 0.29656666533333337
  0.6298999986666667
 O2 O 0.4461333353333333 0.29656666533333337
  0.37009998166666663
 O2 O 0.5538666646666667 0.03676666566666666
  0.6298999986666667
 O2 O 0.5538666646666667 0.03676666566666666
  0.37009998166666663
 T1 Si 0.3333333333333333 0.060766666999999996
  0.45613333566666664
 T1 Si 0.3333333333333333 0.060766666999999996
  0.45613333566666664
 T1 Si 0.3333333333333333 0.272566676 0.543866674
 T1 Si 0.3333333333333333 0.272566676 0.543866674
 T1 Si 0.3333333333333333 0.272566676 0.45613333566666664
 T1 Si 0.3333333333333333 0.272566676 0.45613333566666664
 T1 Si 0.3333333333333333 0.060766666999999996 0.543866674
 T1 Si 0.3333333333333333 0.060766666999999996 0.543866674
 T1 Si 0.45613333566666664 0.0 0.3941000003333333
 T1 Si 0.45613333566666664 0.0 0.3941000003333333
 T1 Si 0.543866674 0.0 0.6059000093333333
 T1 Si 0.543866674 0.0 0.6059000093333333
 T1 Si 0.45613333566666664 0.0 0.6059000093333333
 T1 Si 0.45613333566666664 0.0 0.6059000093333333
 T1 Si 0.543866674 0.0 0.3941000003333333
 T1 Si 0.543866674 0.0 0.3941000003333333
 T1 Si 0.3941000003333333 0.12280000233333332
  0.3333333333333333
 T1 Si 0.3941000003333333 0.12280000233333332
  0.3333333333333333
 T1 Si 0.6059000093333333 0.21053334066666665
  0.3333333333333333
 T1 Si 0.6059000093333333 0.21053334066666665
  0.3333333333333333
 T1 Si 0.6059000093333333 0.12280000233333332
  0.3333333333333333
 T1 Si 0.6059000093333333 0.12280000233333332
  0.3333333333333333
 T1 Si 0.3941000003333333 0.21053334066666665
  0.3333333333333333
 T1 Si 0.3941000003333333 0.21053334066666665
  0.3333333333333333
 T1 Si 0.3941000003333333 0.0 0.543866674
 T1 Si 0.3941000003333333 0.0 0.543866674
 T1 Si 0.6059000093333333 0.0 0.45613333566666664
 T1 Si 0.6059000093333333 0.0 0.45613333566666664
 T1 Si 0.6059000093333333 0.0 0.543866674
 T1 Si 0.6059000093333333 0.0 0.543866674
 T1 Si 0.3941000003333333 0.0 0.45613333566666664
 T1 Si 0.3941000003333333 0.0 0.45613333566666664
 T1 Si 0.3333333333333333 0.12280000233333332
  0.6059000093333333
 T1 Si 0.3333333333333333 0.12280000233333332
  0.6059000093333333
 T1 Si 0.3333333333333333 0.21053334066666665
  0.3941000003333333
 T1 Si 0.3333333333333333 0.21053334066666665
  0.3941000003333333
 T1 Si 0.3333333333333333 0.12280000233333332
  0.3941000003333333
 T1 Si 0.3333333333333333 0.12280000233333332
  0.3941000003333333
 T1 Si 0.3333333333333333 0.21053334066666665
  0.6059000093333333
 T1 Si 0.3333333333333333 0.21053334066666665
  0.6059000093333333
 T1 Si 0.45613333566666664 0.060766666999999996
  0.3333333333333333
 T1 Si 0.45613333566666664 0.060766666999999996
  0.3333333333333333
 T1 Si 0.543866674 0.272566676 0.3333333333333333
 T1 Si 0.543866674 0.272566676 0.3333333333333333
 T1 Si 0.45613333566666664 0.272566676 0.3333333333333333
 T1 Si 0.45613333566666664 0.272566676 0.3333333333333333
 T1 Si 0.543866674 0.060766666999999996 0.3333333333333333
 T1 Si 0.543866674 0.060766666999999996 0.3333333333333333
 O1 O 0.6666666666666666 0.07073333366666666 0.5
 O1 O 0.6666666666666666 0.07073333366666666 0.5
 O1 O 0.6666666666666666 0.26260000466666666 0.5
 O1 O 0.6666666666666666 0.26260000466666666 0.5
 O1 O 0.8333333333333333 0.0 0.404066667
 O1 O 0.8333333333333333 0.0 0.404066667
 O1 O 0.8333333333333333 0.0 0.595933338
 O1 O 0.8333333333333333 0.0 0.595933338
 O1 O 0.7374000003333333 0.16666666666666666
  0.3333333333333333
 O1 O 0.7374000003333333 0.16666666666666666
  0.3333333333333333
 O1 O 0.9292666713333333 0.16666666666666666
  0.3333333333333333
 O1 O 0.9292666713333333 0.16666666666666666
  0.3333333333333333
 O1 O 0.7374000003333333 0.0 0.5
 O1 O 0.7374000003333333 0.0 0.5
 O1 O 0.9292666713333333 0.0 0.5
 O1 O 0.9292666713333333 0.0 0.5
 O1 O 0.6666666666666666 0.16666666666666666 0.595933338
 O1 O 0.6666666666666666 0.16666666666666666 0.595933338
 O1 O 0.6666666666666666 0.16666666666666666 0.404066667
 O1 O 0.6666666666666666 0.16666666666666666 0.404066667
 O1 O 0.8333333333333333 0.07073333366666666
  0.3333333333333333
 O1 O 0.8333333333333333 0.07073333366666666
  0.3333333333333333
 O1 O 0.8333333333333333 0.26260000466666666
  0.3333333333333333
 O1 O 0.8333333333333333 0.26260000466666666
  0.3333333333333333
 O2 O 0.7034333323333333 0.03676666566666666
  0.4461333353333333
 O2 O 0.9632333319999999 0.29656666533333337
  0.5538666646666667
 O2 O 0.9632333319999999 0.29656666533333337
  0.4461333353333333
 O2 O 0.7034333323333333 0.03676666566666666
  0.5538666646666667
 O2 O 0.9632333319999999 0.03676666566666666
  0.5538666646666667
 O2 O 0.7034333323333333 0.29656666533333337
  0.4461333353333333
 O2 O 0.7034333323333333 0.29656666533333337
  0.5538666646666667
 O2 O 0.9632333319999999 0.03676666566666666
  0.4461333353333333
 O2 O 0.7794666686666667 0.03676666566666666
  0.37009999899999996
 O2 O 0.887199998 0.29656666533333337 0.6298999986666667
 O2 O 0.7794666686666667 0.29656666533333337
  0.6298999986666667
 O2 O 0.887199998 0.03676666566666666 0.37009999899999996
 O2 O 0.887199998 0.29656666533333337 0.37009999899999996
 O2 O 0.7794666686666667 0.03676666566666666
  0.6298999986666667
 O2 O 0.887199998 0.03676666566666666 0.6298999986666667
 O2 O 0.7794666686666667 0.29656666533333337
  0.37009999899999996
 O2 O 0.7034333323333333 0.112800002 0.37009999899999996
 O2 O 0.9632333319999999 0.22053333133333333
  0.6298999986666667
 O2 O 0.9632333319999999 0.112800002 0.6298999986666667
 O2 O 0.7034333323333333 0.22053333133333333
  0.37009999899999996
 O2 O 0.7034333323333333 0.22053333133333333
  0.6298999986666667
 O2 O 0.9632333319999999 0.112800002 0.37009999899999996
 O2 O 0.9632333319999999 0.22053333133333333
  0.37009999899999996
 O2 O 0.7034333323333333 0.112800002 0.6298999986666667
 O3 O 0.6666666666666666 0.09890000033333333
  0.43223333366666666
 O3 O 0.6666666666666666 0.09890000033333333
  0.43223333366666666
 O3 O 0.6666666666666666 0.234433333 0.5677666663333333
 O3 O 0.6666666666666666 0.234433333 0.5677666663333333
 O3 O 0.6666666666666666 0.234433333 0.43223333366666666
 O3 O 0.6666666666666666 0.234433333 0.43223333366666666
 O3 O 0.6666666666666666 0.09890000033333333
  0.5677666663333333
 O3 O 0.6666666666666666 0.09890000033333333
  0.5677666663333333
 O3 O 0.765566667 0.0 0.43223333366666666
 O3 O 0.765566667 0.0 0.43223333366666666
 O3 O 0.9010999996666667 0.0 0.5677666663333333
 O3 O 0.9010999996666667 0.0 0.5677666663333333
 O3 O 0.765566667 0.0 0.5677666663333333
 O3 O 0.765566667 0.0 0.5677666663333333
 O3 O 0.9010999996666667 0.0 0.43223333366666666
 O3 O 0.9010999996666667 0.0 0.43223333366666666
 O3 O 0.765566667 0.09890000033333333 0.3333333333333333
 O3 O 0.765566667 0.09890000033333333 0.3333333333333333
 O3 O 0.9010999996666667 0.234433333 0.3333333333333333
 O3 O 0.9010999996666667 0.234433333 0.3333333333333333
 O3 O 0.9010999996666667 0.09890000033333333
  0.3333333333333333
 O3 O 0.9010999996666667 0.09890000033333333
  0.3333333333333333
 O3 O 0.765566667 0.234433333 0.3333333333333333
 O3 O 0.765566667 0.234433333 0.3333333333333333
 O2 O 0.9632333319999999 0.03676666566666666
  0.4461333353333333
 O2 O 0.703433315 0.03676666566666666 0.4461333353333333
 O2 O 0.9632333319999999 0.29656666533333337
  0.5538666646666667
 O2 O 0.703433315 0.29656666533333337 0.5538666646666667
 O2 O 0.9632333319999999 0.29656666533333337
  0.4461333353333333
 O2 O 0.703433315 0.29656666533333337 0.4461333353333333
 O2 O 0.9632333319999999 0.03676666566666666
  0.5538666646666667
 O2 O 0.703433315 0.03676666566666666 0.5538666646666667
 O2 O 0.7794666686666667 0.29656666533333337
  0.37009999899999996
 O2 O 0.7794666686666667 0.03676664833333333
  0.37009999899999996
 O2 O 0.887199998 0.29656666533333337 0.6298999986666667
 O2 O 0.887199998 0.03676664833333333 0.6298999986666667
 O2 O 0.7794666686666667 0.29656666533333337
  0.6298999986666667
 O2 O 0.7794666686666667 0.03676664833333333
  0.6298999986666667
 O2 O 0.887199998 0.29656666533333337 0.37009999899999996
 O2 O 0.887199998 0.03676664833333333 0.37009999899999996
 O2 O 0.7034333323333333 0.112800002 0.6298999986666667
 O2 O 0.7034333323333333 0.112800002 0.37009998166666663
 O2 O 0.9632333319999999 0.22053333133333333
  0.6298999986666667
 O2 O 0.9632333319999999 0.22053333133333333
  0.37009998166666663
 O2 O 0.9632333319999999 0.112800002 0.6298999986666667
 O2 O 0.9632333319999999 0.112800002 0.37009998166666663
 O2 O 0.7034333323333333 0.22053333133333333
  0.6298999986666667
 O2 O 0.7034333323333333 0.22053333133333333
  0.37009998166666663
 O2 O 0.7034333323333333 0.29656666533333337
  0.5538666646666667
 O2 O 0.7034333323333333 0.03676664833333333
  0.5538666646666667
 O2 O 0.9632333319999999 0.29656666533333337
  0.4461333353333333
 O2 O 0.9632333319999999 0.03676664833333333
  0.4461333353333333
 O2 O 0.9632333319999999 0.29656666533333337
  0.5538666646666667
 O2 O 0.9632333319999999 0.03676664833333333
  0.5538666646666667
 O2 O 0.7034333323333333 0.29656666533333337
  0.4461333353333333
 O2 O 0.7034333323333333 0.03676664833333333
  0.4461333353333333
 O2 O 0.9632333319999999 0.112800002 0.6298999986666667
 O2 O 0.703433315 0.112800002 0.6298999986666667
 O2 O 0.9632333319999999 0.22053333133333333
  0.37009999899999996
 O2 O 0.703433315 0.22053333133333333 0.37009999899999996
 O2 O 0.9632333319999999 0.112800002 0.37009999899999996
 O2 O 0.703433315 0.112800002 0.37009999899999996
 O2 O 0.9632333319999999 0.22053333133333333
  0.6298999986666667
 O2 O 0.703433315 0.22053333133333333 0.6298999986666667
 O2 O 0.7794666686666667 0.03676666566666666
  0.6298999986666667
 O2 O 0.7794666686666667 0.03676666566666666
  0.37009998166666663
 O2 O 0.887199998 0.29656666533333337 0.6298999986666667
 O2 O 0.887199998 0.29656666533333337 0.37009998166666663
 O2 O 0.7794666686666667 0.29656666533333337
  0.6298999986666667
 O2 O 0.7794666686666667 0.29656666533333337
  0.37009998166666663
 O2 O 0.887199998 0.03676666566666666 0.6298999986666667
 O2 O 0.887199998 0.03676666566666666 0.37009998166666663
 T1 Si 0.6666666666666666 0.060766666999999996
  0.45613333566666664
 T1 Si 0.6666666666666666 0.060766666999999996
  0.45613333566666664
 T1 Si 0.6666666666666666 0.272566676 0.543866674
 T1 Si 0.6666666666666666 0.272566676 0.543866674
 T1 Si 0.6666666666666666 0.272566676 0.45613333566666664
 T1 Si 0.6666666666666666 0.272566676 0.45613333566666664
 T1 Si 0.6666666666666666 0.060766666999999996 0.543866674
 T1 Si 0.6666666666666666 0.060766666999999996 0.543866674
 T1 Si 0.789466669 0.0 0.3941000003333333
 T1 Si 0.789466669 0.0 0.3941000003333333
 T1 Si 0.8772000073333333 0.0 0.6059000093333333
 T1 Si 0.8772000073333333 0.0 0.6059000093333333
 T1 Si 0.789466669 0.0 0.6059000093333333
 T1 Si 0.789466669 0.0 0.6059000093333333
 T1 Si 0.8772000073333333 0.0 0.3941000003333333
 T1 Si 0.8772000073333333 0.0 0.3941000003333333
 T1 Si 0.7274333336666666 0.12280000233333332
  0.3333333333333333
 T1 Si 0.7274333336666666 0.12280000233333332
  0.3333333333333333
 T1 Si 0.9392333426666666 0.21053334066666665
  0.3333333333333333
 T1 Si 0.9392333426666666 0.21053334066666665
  0.3333333333333333
 T1 Si 0.9392333426666666 0.12280000233333332
  0.3333333333333333
 T1 Si 0.9392333426666666 0.12280000233333332
  0.3333333333333333
 T1 Si 0.7274333336666666 0.21053334066666665
  0.3333333333333333
 T1 Si 0.7274333336666666 0.21053334066666665
  0.3333333333333333
 T1 Si 0.7274333336666666 0.0 0.543866674
 T1 Si 0.7274333336666666 0.0 0.543866674
 T1 Si 0.9392333426666666 0.0 0.45613333566666664
 T1 Si 0.9392333426666666 0.0 0.45613333566666664
 T1 Si 0.9392333426666666 0.0 0.543866674
 T1 Si 0.9392333426666666 0.0 0.543866674
 T1 Si 0.7274333336666666 0.0 0.45613333566666664
 T1 Si 0.7274333336666666 0.0 0.45613333566666664
 T1 Si 0.6666666666666666 0.12280000233333332
  0.6059000093333333
 T1 Si 0.6666666666666666 0.12280000233333332
  0.6059000093333333
 T1 Si 0.6666666666666666 0.21053334066666665
  0.3941000003333333
 T1 Si 0.6666666666666666 0.21053334066666665
  0.3941000003333333
 T1 Si 0.6666666666666666 0.12280000233333332
  0.3941000003333333
 T1 Si 0.6666666666666666 0.12280000233333332
  0.3941000003333333
 T1 Si 0.6666666666666666 0.21053334066666665
  0.6059000093333333
 T1 Si 0.6666666666666666 0.21053334066666665
  0.6059000093333333
 T1 Si 0.789466669 0.060766666999999996 0.3333333333333333
 T1 Si 0.789466669 0.060766666999999996 0.3333333333333333
 T1 Si 0.8772000073333333 0.272566676 0.3333333333333333
 T1 Si 0.8772000073333333 0.272566676 0.3333333333333333
 T1 Si 0.789466669 0.272566676 0.3333333333333333
 T1 Si 0.789466669 0.272566676 0.3333333333333333
 T1 Si 0.8772000073333333 0.060766666999999996
  0.3333333333333333
 T1 Si 0.8772000073333333 0.060766666999999996
  0.3333333333333333
 O1 O 0.0 0.404066667 0.5
 O1 O 0.0 0.404066667 0.5
 O1 O 0.0 0.595933338 0.5
 O1 O 0.0 0.595933338 0.5
 O1 O 0.16666666666666666 0.3333333333333333 0.404066667
 O1 O 0.16666666666666666 0.3333333333333333 0.404066667
 O1 O 0.16666666666666666 0.3333333333333333 0.595933338
 O1 O 0.16666666666666666 0.3333333333333333 0.595933338
 O1 O 0.07073333366666666 0.5 0.3333333333333333
 O1 O 0.07073333366666666 0.5 0.3333333333333333
 O1 O 0.26260000466666666 0.5 0.3333333333333333
 O1 O 0.26260000466666666 0.5 0.3333333333333333
 O1 O 0.07073333366666666 0.3333333333333333 0.5
 O1 O 0.07073333366666666 0.3333333333333333 0.5
 O1 O 0.26260000466666666 0.3333333333333333 0.5
 O1 O 0.26260000466666666 0.3333333333333333 0.5
 O1 O 0.0 0.5 0.595933338
 O1 O 0.0 0.5 0.595933338
 O1 O 0.0 0.5 0.404066667
 O1 O 0.0 0.5 0.404066667
 O1 O 0.16666666666666666 0.404066667 0.3333333333333333
 O1 O 0.16666666666666666 0.404066667 0.3333333333333333
 O1 O 0.16666666666666666 0.595933338 0.3333333333333333
 O1 O 0.16666666666666666 0.595933338 0.3333333333333333
 O2 O 0.03676666566666666 0.37009999899999996
  0.4461333353333333
 O2 O 0.29656666533333337 0.6298999986666667
  0.5538666646666667
 O2 O 0.29656666533333337 0.6298999986666667
  0.4461333353333333
 O2 O 0.03676666566666666 0.37009999899999996
  0.5538666646666667
 O2 O 0.29656666533333337 0.37009999899999996
  0.5538666646666667
 O2 O 0.03676666566666666 0.6298999986666667
  0.4461333353333333
 O2 O 0.03676666566666666 0.6298999986666667
  0.5538666646666667
 O2 O 0.29656666533333337 0.37009999899999996
  0.4461333353333333
 O2 O 0.112800002 0.37009999899999996 0.37009999899999996
 O2 O 0.22053333133333333 0.6298999986666667
  0.6298999986666667
 O2 O 0.112800002 0.6298999986666667 0.6298999986666667
 O2 O 0.22053333133333333 0.37009999899999996
  0.37009999899999996
 O2 O 0.22053333133333333 0.6298999986666667
  0.37009999899999996
 O2 O 0.112800002 0.37009999899999996 0.6298999986666667
 O2 O 0.22053333133333333 0.37009999899999996
  0.6298999986666667
 O2 O 0.112800002 0.6298999986666667 0.37009999899999996
 O2 O 0.03676666566666666 0.4461333353333333
  0.37009999899999996
 O2 O 0.29656666533333337 0.5538666646666667
  0.6298999986666667
 O2 O 0.29656666533333337 0.4461333353333333
  0.6298999986666667
 O2 O 0.03676666566666666 0.5538666646666667
  0.37009999899999996
 O2 O 0.03676666566666666 0.5538666646666667
  0.6298999986666667
 O2 O 0.29656666533333337 0.4461333353333333
  0.37009999899999996
 O2 O 0.29656666533333337 0.5538666646666667
  0.37009999899999996
 O2 O 0.03676666566666666 0.4461333353333333
  0.6298999986666667
 O3 O 0.0 0.43223333366666666 0.43223333366666666
 O3 O 0.0 0.43223333366666666 0.43223333366666666
 O3 O 0.0 0.5677666663333333 0.5677666663333333
 O3 O 0.0 0.5677666663333333 0.5677666663333333
 O3 O 0.0 0.5677666663333333 0.43223333366666666
 O3 O 0.0 0.5677666663333333 0.43223333366666666
 O3 O 0.0 0.43223333366666666 0.5677666663333333
 O3 O 0.0 0.43223333366666666 0.5677666663333333
 O3 O 0.09890000033333333 0.3333333333333333
  0.43223333366666666
 O3 O 0.09890000033333333 0.3333333333333333
  0.43223333366666666
 O3 O 0.234433333 0.3333333333333333 0.5677666663333333
 O3 O 0.234433333 0.3333333333333333 0.5677666663333333
 O3 O 0.09890000033333333 0.3333333333333333
  0.5677666663333333
 O3 O 0.09890000033333333 0.3333333333333333
  0.5677666663333333
 O3 O 0.234433333 0.3333333333333333 0.43223333366666666
 O3 O 0.234433333 0.3333333333333333 0.43223333366666666
 O3 O 0.09890000033333333 0.43223333366666666
  0.3333333333333333
 O3 O 0.09890000033333333 0.43223333366666666
  0.3333333333333333
 O3 O 0.234433333 0.5677666663333333 0.3333333333333333
 O3 O 0.234433333 0.5677666663333333 0.3333333333333333
 O3 O 0.234433333 0.43223333366666666 0.3333333333333333
 O3 O 0.234433333 0.43223333366666666 0.3333333333333333
 O3 O 0.09890000033333333 0.5677666663333333
  0.3333333333333333
 O3 O 0.09890000033333333 0.5677666663333333
  0.3333333333333333
 O2 O 0.29656666533333337 0.37009999899999996
  0.4461333353333333
 O2 O 0.03676664833333333 0.37009999899999996
  0.4461333353333333
 O2 O 0.29656666533333337 0.6298999986666667
  0.5538666646666667
 O2 O 0.03676664833333333 0.6298999986666667
  0.5538666646666667
 O2 O 0.29656666533333337 0.6298999986666667
  0.4461333353333333
 O2 O 0.03676664833333333 0.6298999986666667
  0.4461333353333333
 O2 O 0.29656666533333337 0.37009999899999996
  0.5538666646666667
 O2 O 0.03676664833333333 0.37009999899999996
  0.5538666646666667
 O2 O 0.112800002 0.6298999986666667 0.37009999899999996
 O2 O 0.112800002 0.37009998166666663 0.37009999899999996
 O2 O 0.22053333133333333 0.6298999986666667
  0.6298999986666667
 O2 O 0.22053333133333333 0.37009998166666663
  0.6298999986666667
 O2 O 0.112800002 0.6298999986666667 0.6298999986666667
 O2 O 0.112800002 0.37009998166666663 0.6298999986666667
 O2 O 0.22053333133333333 0.6298999986666667
  0.37009999899999996
 O2 O 0.22053333133333333 0.37009998166666663
  0.37009999899999996
 O2 O 0.03676666566666666 0.4461333353333333
  0.6298999986666667
 O2 O 0.03676666566666666 0.4461333353333333
  0.37009998166666663
 O2 O 0.29656666533333337 0.5538666646666667
  0.6298999986666667
 O2 O 0.29656666533333337 0.5538666646666667
  0.37009998166666663
 O2 O 0.29656666533333337 0.4461333353333333
  0.6298999986666667
 O2 O 0.29656666533333337 0.4461333353333333
  0.37009998166666663
 O2 O 0.03676666566666666 0.5538666646666667
  0.6298999986666667
 O2 O 0.03676666566666666 0.5538666646666667
  0.37009998166666663
 O2 O 0.03676666566666666 0.6298999986666667
  0.5538666646666667
 O2 O 0.03676666566666666 0.37009998166666663
  0.5538666646666667
 O2 O 0.29656666533333337 0.6298999986666667
  0.4461333353333333
 O2 O 0.29656666533333337 0.37009998166666663
  0.4461333353333333
 O2 O 0.29656666533333337 0.6298999986666667
  0.5538666646666667
 O2 O 0.29656666533333337 0.37009998166666663
  0.5538666646666667
 O2 O 0.03676666566666666 0.6298999986666667
  0.4461333353333333
 O2 O 0.03676666566666666 0.37009998166666663
  0.4461333353333333
 O2 O 0.29656666533333337 0.4461333353333333
  0.6298999986666667
 O2 O 0.03676664833333333 0.4461333353333333
  0.6298999986666667
 O2 O 0.29656666533333337 0.5538666646666667
  0.37009999899999996
 O2 O 0.03676664833333333 0.5538666646666667
  0.37009999899999996
 O2 O 0.29656666533333337 0.4461333353333333
  0.37009999899999996
 O2 O 0.03676664833333333 0.4461333353333333
  0.37009999899999996
 O2 O 0.29656666533333337 0.5538666646666667
  0.6298999986666667
 O2 O 0.03676664833333333 0.5538666646666667
  0.6298999986666667
 O2 O 0.112800002 0.37009999899999996 0.6298999986666667
 O2 O 0.112800002 0.37009999899999996 0.37009998166666663
 O2 O 0.22053333133333333 0.6298999986666667
  0.6298999986666667
 O2 O 0.22053333133333333 0.6298999986666667
  0.37009998166666663
 O2 O 0.112800002 0.6298999986666667 0.6298999986666667
 O2 O 0.112800002 0.6298999986666667 0.37009998166666663
 O2 O 0.22053333133333333 0.37009999899999996
  0.6298999986666667
 O2 O 0.22053333133333333 0.37009999899999996
  0.37009998166666663
 T1 Si 0.0 0.3941000003333333 0.45613333566666664
 T1 Si 0.0 0.3941000003333333 0.45613333566666664
 T1 Si 0.0 0.6059000093333333 0.543866674
 T1 Si 0.0 0.6059000093333333 0.543866674
 T1 Si 0.0 0.6059000093333333 0.45613333566666664
 T1 Si 0.0 0.6059000093333333 0.45613333566666664
 T1 Si 0.0 0.3941000003333333 0.543866674
 T1 Si 0.0 0.3941000003333333 0.543866674
 T1 Si 0.12280000233333332 0.3333333333333333
  0.3941000003333333
 T1 Si 0.12280000233333332 0.3333333333333333
  0.3941000003333333
 T1 Si 0.21053334066666665 0.3333333333333333
  0.6059000093333333
 T1 Si 0.21053334066666665 0.3333333333333333
  0.6059000093333333
 T1 Si 0.12280000233333332 0.3333333333333333
  0.6059000093333333
 T1 Si 0.12280000233333332 0.3333333333333333
  0.6059000093333333
 T1 Si 0.21053334066666665 0.3333333333333333
  0.3941000003333333
 T1 Si 0.21053334066666665 0.3333333333333333
  0.3941000003333333
 T1 Si 0.060766666999999996 0.45613333566666664
  0.3333333333333333
 T1 Si 0.060766666999999996 0.45613333566666664
  0.3333333333333333
 T1 Si 0.272566676 0.543866674 0.3333333333333333
 T1 Si 0.272566676 0.543866674 0.3333333333333333
 T1 Si 0.272566676 0.45613333566666664 0.3333333333333333
 T1 Si 0.272566676 0.45613333566666664 0.3333333333333333
 T1 Si 0.060766666999999996 0.543866674 0.3333333333333333
 T1 Si 0.060766666999999996 0.543866674 0.3333333333333333
 T1 Si 0.060766666999999996 0.3333333333333333 0.543866674
 T1 Si 0.060766666999999996 0.3333333333333333 0.543866674
 T1 Si 0.272566676 0.3333333333333333 0.45613333566666664
 T1 Si 0.272566676 0.3333333333333333 0.45613333566666664
 T1 Si 0.272566676 0.3333333333333333 0.543866674
 T1 Si 0.272566676 0.3333333333333333 0.543866674
 T1 Si 0.060766666999999996 0.3333333333333333
  0.45613333566666664
 T1 Si 0.060766666999999996 0.3333333333333333
  0.45613333566666664
 T1 Si 0.0 0.45613333566666664 0.6059000093333333
 T1 Si 0.0 0.45613333566666664 0.6059000093333333
 T1 Si 0.0 0.543866674 0.3941000003333333
 T1 Si 0.0 0.543866674 0.3941000003333333
 T1 Si 0.0 0.45613333566666664 0.3941000003333333
 T1 Si 0.0 0.45613333566666664 0.3941000003333333
 T1 Si 0.0 0.543866674 0.6059000093333333
 T1 Si 0.0 0.543866674 0.6059000093333333
 T1 Si 0.12280000233333332 0.3941000003333333
  0.3333333333333333
 T1 Si 0.12280000233333332 0.3941000003333333
  0.3333333333333333
 T1 Si 0.21053334066666665 0.6059000093333333
  0.3333333333333333
 T1 Si 0.21053334066666665 0.6059000093333333
  0.3333333333333333
 T1 Si 0.12280000233333332 0.6059000093333333
  0.3333333333333333
 T1 Si 0.12280000233333332 0.6059000093333333
  0.3333333333333333
 T1 Si 0.21053334066666665 0.3941000003333333
  0.3333333333333333
 T1 Si 0.21053334066666665 0.3941000003333333
  0.3333333333333333
 O1 O 0.3333333333333333 0.404066667 0.5
 O1 O 0.3333333333333333 0.404066667 0.5
 O1 O 0.3333333333333333 0.595933338 0.5
 O1 O 0.3333333333333333 0.595933338 0.5
 O1 O 0.5 0.3333333333333333 0.404066667
 O1 O 0.5 0.3333333333333333 0.404066667
 O1 O 0.5 0.3333333333333333 0.595933338
 O1 O 0.5 0.3333333333333333 0.595933338
 O1 O 0.404066667 0.5 0.3333333333333333
 O1 O 0.404066667 0.5 0.3333333333333333
 O1 O 0.595933338 0.5 0.3333333333333333
 O1 O 0.595933338 0.5 0.3333333333333333
 O1 O 0.404066667 0.3333333333333333 0.5
 O1 O 0.404066667 0.3333333333333333 0.5
 O1 O 0.595933338 0.3333333333333333 0.5
 O1 O 0.595933338 0.3333333333333333 0.5
 O1 O 0.3333333333333333 0.5 0.595933338
 O1 O 0.3333333333333333 0.5 0.595933338
 O1 O 0.3333333333333333 0.5 0.404066667
 O1 O 0.3333333333333333 0.5 0.404066667
 O1 O 0.5 0.404066667 0.3333333333333333
 O1 O 0.5 0.404066667 0.3333333333333333
 O1 O 0.5 0.595933338 0.3333333333333333
 O1 O 0.5 0.595933338 0.3333333333333333
 O2 O 0.37009999899999996 0.37009999899999996
  0.4461333353333333
 O2 O 0.6298999986666667 0.6298999986666667 0.5538666646666667
 O2 O 0.6298999986666667 0.6298999986666667 0.4461333353333333
 O2 O 0.37009999899999996 0.37009999899999996
  0.5538666646666667
 O2 O 0.6298999986666667 0.37009999899999996
  0.5538666646666667
 O2 O 0.37009999899999996 0.6298999986666667
  0.4461333353333333
 O2 O 0.37009999899999996 0.6298999986666667
  0.5538666646666667
 O2 O 0.6298999986666667 0.37009999899999996
  0.4461333353333333
 O2 O 0.4461333353333333 0.37009999899999996
  0.37009999899999996
 O2 O 0.5538666646666667 0.6298999986666667 0.6298999986666667
 O2 O 0.4461333353333333 0.6298999986666667 0.6298999986666667
 O2 O 0.5538666646666667 0.37009999899999996
  0.37009999899999996
 O2 O 0.5538666646666667 0.6298999986666667
  0.37009999899999996
 O2 O 0.4461333353333333 0.37009999899999996
  0.6298999986666667
 O2 O 0.5538666646666667 0.37009999899999996
  0.6298999986666667
 O2 O 0.4461333353333333 0.6298999986666667
  0.37009999899999996
 O2 O 0.37009999899999996 0.4461333353333333
  0.37009999899999996
 O2 O 0.6298999986666667 0.5538666646666667 0.6298999986666667
 O2 O 0.6298999986666667 0.4461333353333333 0.6298999986666667
 O2 O 0.37009999899999996 0.5538666646666667
  0.37009999899999996
 O2 O 0.37009999899999996 0.5538666646666667
  0.6298999986666667
 O2 O 0.6298999986666667 0.4461333353333333
  0.37009999899999996
 O2 O 0.6298999986666667 0.5538666646666667
  0.37009999899999996
 O2 O 0.37009999899999996 0.4461333353333333
  0.6298999986666667
 O3 O 0.3333333333333333 0.43223333366666666
  0.43223333366666666
 O3 O 0.3333333333333333 0.43223333366666666
  0.43223333366666666
 O3 O 0.3333333333333333 0.5677666663333333 0.5677666663333333
 O3 O 0.3333333333333333 0.5677666663333333 0.5677666663333333
 O3 O 0.3333333333333333 0.5677666663333333
  0.43223333366666666
 O3 O 0.3333333333333333 0.5677666663333333
  0.43223333366666666
 O3 O 0.3333333333333333 0.43223333366666666
  0.5677666663333333
 O3 O 0.3333333333333333 0.43223333366666666
  0.5677666663333333
 O3 O 0.43223333366666666 0.3333333333333333
  0.43223333366666666
 O3 O 0.43223333366666666 0.3333333333333333
  0.43223333366666666
 O3 O 0.5677666663333333 0.3333333333333333 0.5677666663333333
 O3 O 0.5677666663333333 0.3333333333333333 0.5677666663333333
 O3 O 0.43223333366666666 0.3333333333333333
  0.5677666663333333
 O3 O 0.43223333366666666 0.3333333333333333
  0.5677666663333333
 O3 O 0.5677666663333333 0.3333333333333333
  0.43223333366666666
 O3 O 0.5677666663333333 0.3333333333333333
  0.43223333366666666
 O3 O 0.43223333366666666 0.43223333366666666
  0.3333333333333333
 O3 O 0.43223333366666666 0.43223333366666666
  0.3333333333333333
 O3 O 0.5677666663333333 0.5677666663333333 0.3333333333333333
 O3 O 0.5677666663333333 0.5677666663333333 0.3333333333333333
 O3 O 0.5677666663333333 0.43223333366666666
  0.3333333333333333
 O3 O 0.5677666663333333 0.43223333366666666
  0.3333333333333333
 O3 O 0.43223333366666666 0.5677666663333333
  0.3333333333333333
 O3 O 0.43223333366666666 0.5677666663333333
  0.3333333333333333
 O2 O 0.6298999986666667 0.37009999899999996
  0.4461333353333333
 O2 O 0.37009998166666663 0.37009999899999996
  0.4461333353333333
 O2 O 0.6298999986666667 0.6298999986666667 0.5538666646666667
 O2 O 0.37009998166666663 0.6298999986666667
  0.5538666646666667
 O2 O 0.6298999986666667 0.6298999986666667 0.4461333353333333
 O2 O 0.37009998166666663 0.6298999986666667
  0.4461333353333333
 O2 O 0.6298999986666667 0.37009999899999996
  0.5538666646666667
 O2 O 0.37009998166666663 0.37009999899999996
  0.5538666646666667
 O2 O 0.4461333353333333 0.6298999986666667
  0.37009999899999996
 O2 O 0.4461333353333333 0.37009998166666663
  0.37009999899999996
 O2 O 0.5538666646666667 0.6298999986666667 0.6298999986666667
 O2 O 0.5538666646666667 0.37009998166666663
  0.6298999986666667
 O2 O 0.4461333353333333 0.6298999986666667 0.6298999986666667
 O2 O 0.4461333353333333 0.37009998166666663
  0.6298999986666667
 O2 O 0.5538666646666667 0.6298999986666667
  0.37009999899999996
 O2 O 0.5538666646666667 0.37009998166666663
  0.37009999899999996
 O2 O 0.37009999899999996 0.4461333353333333
  0.6298999986666667
 O2 O 0.37009999899999996 0.4461333353333333
  0.37009998166666663
 O2 O 0.6298999986666667 0.5538666646666667 0.6298999986666667
 O2 O 0.6298999986666667 0.5538666646666667
  0.37009998166666663
 O2 O 0.6298999986666667 0.4461333353333333 0.6298999986666667
 O2 O 0.6298999986666667 0.4461333353333333
  0.37009998166666663
 O2 O 0.37009999899999996 0.5538666646666667
  0.6298999986666667
 O2 O 0.37009999899999996 0.5538666646666667
  0.37009998166666663
 O2 O 0.37009999899999996 0.6298999986666667
  0.5538666646666667
 O2 O 0.37009999899999996 0.37009998166666663
  0.5538666646666667
 O2 O 0.6298999986666667 0.6298999986666667 0.4461333353333333
 O2 O 0.6298999986666667 0.37009998166666663
  0.4461333353333333
 O2 O 0.6298999986666667 0.6298999986666667 0.5538666646666667
 O2 O 0.6298999986666667 0.37009998166666663
  0.5538666646666667
 O2 O 0.37009999899999996 0.6298999986666667
  0.4461333353333333
 O2 O 0.37009999899999996 0.37009998166666663
  0.4461333353333333
 O2 O 0.6298999986666667 0.4461333353333333 0.6298999986666667
 O2 O 0.37009998166666663 0.4461333353333333
  0.6298999986666667
 O2 O 0.6298999986666667 0.5538666646666667
  0.37009999899999996
 O2 O 0.37009998166666663 0.5538666646666667
  0.37009999899999996
 O2 O 0.6298999986666667 0.4461333353333333
  0.37009999899999996
 O2 O 0.37009998166666663 0.4461333353333333
  0.37009999899999996
 O2 O 0.6298999986666667 0.5538666646666667 0.6298999986666667
 O2 O 0.37009998166666663 0.5538666646666667
  0.6298999986666667
 O2 O 0.4461333353333333 0.37009999899999996
  0.6298999986666667
 O2 O 0.4461333353333333 0.37009999899999996
  0.37009998166666663
 O2 O 0.5538666646666667 0.6298999986666667 0.6298999986666667
 O2 O 0.5538666646666667 0.6298999986666667
  0.37009998166666663
 O2 O 0.4461333353333333 0.6298999986666667 0.6298999986666667
 O2 O 0.4461333353333333 0.6298999986666667
  0.37009998166666663
 O2 O 0.5538666646666667 0.37009999899999996
  0.6298999986666667
 O2 O 0.5538666646666667 0.37009999899999996
  0.37009998166666663
 T1 Si 0.3333333333333333 0.3941000003333333
  0.45613333566666664
 T1 Si 0.3333333333333333 0.3941000003333333
  0.45613333566666664
 T1 Si 0.3333333333333333 0.6059000093333333 0.543866674
 T1 Si 0.3333333333333333 0.6059000093333333 0.543866674
 T1 Si 0.3333333333333333 0.6059000093333333
  0.45613333566666664
 T1 Si 0.3333333333333333 0.6059000093333333
  0.45613333566666664
 T1 Si 0.3333333333333333 0.3941000003333333 0.543866674
 T1 Si 0.3333333333333333 0.3941000003333333 0.543866674
 T1 Si 0.45613333566666664 0.3333333333333333
  0.3941000003333333
 T1 Si 0.45613333566666664 0.3333333333333333
  0.3941000003333333
 T1 Si 0.543866674 0.3333333333333333 0.6059000093333333
 T1 Si 0.543866674 0.3333333333333333 0.6059000093333333
 T1 Si 0.45613333566666664 0.3333333333333333
  0.6059000093333333
 T1 Si 0.45613333566666664 0.3333333333333333
  0.6059000093333333
 T1 Si 0.543866674 0.3333333333333333 0.3941000003333333
 T1 Si 0.543866674 0.3333333333333333 0.3941000003333333
 T1 Si 0.3941000003333333 0.45613333566666664
  0.3333333333333333
 T1 Si 0.3941000003333333 0.45613333566666664
  0.3333333333333333
 T1 Si 0.6059000093333333 0.543866674 0.3333333333333333
 T1 Si 0.6059000093333333 0.543866674 0.3333333333333333
 T1 Si 0.6059000093333333 0.45613333566666664
  0.3333333333333333
 T1 Si 0.6059000093333333 0.45613333566666664
  0.3333333333333333
 T1 Si 0.3941000003333333 0.543866674 0.3333333333333333
 T1 Si 0.3941000003333333 0.543866674 0.3333333333333333
 T1 Si 0.3941000003333333 0.3333333333333333 0.543866674
 T1 Si 0.3941000003333333 0.3333333333333333 0.543866674
 T1 Si 0.6059000093333333 0.3333333333333333
  0.45613333566666664
 T1 Si 0.6059000093333333 0.3333333333333333
  0.45613333566666664
 T1 Si 0.6059000093333333 0.3333333333333333 0.543866674
 T1 Si 0.6059000093333333 0.3333333333333333 0.543866674
 T1 Si 0.3941000003333333 0.3333333333333333
  0.45613333566666664
 T1 Si 0.3941000003333333 0.3333333333333333
  0.45613333566666664
 T1 Si 0.3333333333333333 0.45613333566666664
  0.6059000093333333
 T1 Si 0.3333333333333333 0.45613333566666664
  0.6059000093333333
 T1 Si 0.3333333333333333 0.543866674 0.3941000003333333
 T1 Si 0.3333333333333333 0.543866674 0.3941000003333333
 T1 Si 0.3333333333333333 0.45613333566666664
  0.3941000003333333
 T1 Si 0.3333333333333333 0.45613333566666664
  0.3941000003333333
 T1 Si 0.3333333333333333 0.543866674 0.6059000093333333
 T1 Si 0.3333333333333333 0.543866674 0.6059000093333333
 T1 Si 0.45613333566666664 0.3941000003333333
  0.3333333333333333
 T1 Si 0.45613333566666664 0.3941000003333333
  0.3333333333333333
 T1 Si 0.543866674 0.6059000093333333 0.3333333333333333
 T1 Si 0.543866674 0.6059000093333333 0.3333333333333333
 T1 Si 0.45613333566666664 0.6059000093333333
  0.3333333333333333
 T1 Si 0.45613333566666664 0.6059000093333333
  0.3333333333333333
 T1 Si 0.543866674 0.3941000003333333 0.3333333333333333
 T1 Si 0.543866674 0.3941000003333333 0.3333333333333333
 O1 O 0.6666666666666666 0.404066667 0.5
 O1 O 0.6666666666666666 0.404066667 0.5
 O1 O 0.6666666666666666 0.595933338 0.5
 O1 O 0.6666666666666666 0.595933338 0.5
 O1 O 0.8333333333333333 0.3333333333333333 0.404066667
 O1 O 0.8333333333333333 0.3333333333333333 0.404066667
 O1 O 0.8333333333333333 0.3333333333333333 0.595933338
 O1 O 0.8333333333333333 0.3333333333333333 0.595933338
 O1 O 0.7374000003333333 0.5 0.3333333333333333
 O1 O 0.7374000003333333 0.5 0.3333333333333333
 O1 O 0.9292666713333333 0.5 0.3333333333333333
 O1 O 0.9292666713333333 0.5 0.3333333333333333
 O1 O 0.7374000003333333 0.3333333333333333 0.5
 O1 O 0.7374000003333333 0.3333333333333333 0.5
 O1 O 0.9292666713333333 0.3333333333333333 0.5
 O1 O 0.9292666713333333 0.3333333333333333 0.5
 O1 O 0.6666666666666666 0.5 0.595933338
 O1 O 0.6666666666666666 0.5 0.595933338
 O1 O 0.6666666666666666 0.5 0.404066667
 O1 O 0.6666666666666666 0.5 0.404066667
 O1 O 0.8333333333333333 0.404066667 0.3333333333333333
 O1 O 0.8333333333333333 0.404066667 0.3333333333333333
 O1 O 0.8333333333333333 0.595933338 0.3333333333333333
 O1 O 0.8333333333333333 0.595933338 0.3333333333333333
 O2 O 0.7034333323333333 0.37009999899999996
  0.4461333353333333
 O2 O 0.9632333319999999 0.6298999986666667 0.5538666646666667
 O2 O 0.9632333319999999 0.6298999986666667 0.4461333353333333
 O2 O 0.7034333323333333 0.37009999899999996
  0.5538666646666667
 O2 O 0.9632333319999999 0.37009999899999996
  0.5538666646666667
 O2 O 0.7034333323333333 0.6298999986666667 0.4461333353333333
 O2 O 0.7034333323333333 0.6298999986666667 0.5538666646666667
 O2 O 0.9632333319999999 0.37009999899999996
  0.4461333353333333
 O2 O 0.7794666686666667 0.37009999899999996
  0.37009999899999996
 O2 O 0.887199998 0.6298999986666667 0.6298999986666667
 O2 O 0.7794666686666667 0.6298999986666667 0.6298999986666667
 O2 O 0.887199998 0.37009999899999996 0.37009999899999996
 O2 O 0.887199998 0.6298999986666667 0.37009999899999996
 O2 O 0.7794666686666667 0.37009999899999996
  0.6298999986666667
 O2 O 0.887199998 0.37009999899999996 0.6298999986666667
 O2 O 0.7794666686666667 0.6298999986666667
  0.37009999899999996
 O2 O 0.7034333323333333 0.4461333353333333
  0.37009999899999996
 O2 O 0.9632333319999999 0.5538666646666667 0.6298999986666667
 O2 O 0.9632333319999999 0.4461333353333333 0.6298999986666667
 O2 O 0.7034333323333333 0.5538666646666667
  0.37009999899999996
 O2 O 0.7034333323333333 0.5538666646666667 0.6298999986666667
 O2 O 0.9632333319999999 0.4461333353333333
  0.37009999899999996
 O2 O 0.9632333319999999 0.5538666646666667
  0.37009999899999996
 O2 O 0.7034333323333333 0.4461333353333333 0.6298999986666667
 O3 O 0.6666666666666666 0.43223333366666666
  0.43223333366666666
 O3 O 0.6666666666666666 0.43223333366666666
  0.43223333366666666
 O3 O 0.6666666666666666 0.5677666663333333 0.5677666663333333
 O3 O 0.6666666666666666 0.5677666663333333 0.5677666663333333
 O3 O 0.6666666666666666 0.5677666663333333
  0.43223333366666666
 O3 O 0.6666666666666666 0.5677666663333333
  0.43223333366666666
 O3 O 0.6666666666666666 0.43223333366666666
  0.5677666663333333
 O3 O 0.6666666666666666 0.43223333366666666
  0.5677666663333333
 O3 O 0.765566667 0.3333333333333333 0.43223333366666666
 O3 O 0.765566667 0.3333333333333333 0.43223333366666666
 O3 O 0.9010999996666667 0.3333333333333333 0.5677666663333333
 O3 O 0.9010999996666667 0.3333333333333333 0.5677666663333333
 O3 O 0.765566667 0.3333333333333333 0.5677666663333333
 O3 O 0.765566667 0.3333333333333333 0.5677666663333333
 O3 O 0.9010999996666667 0.3333333333333333
  0.43223333366666666
 O3 O 0.9010999996666667 0.3333333333333333
  0.43223333366666666
 O3 O 0.765566667 0.43223333366666666 0.3333333333333333
 O3 O 0.765566667 0.43223333366666666 0.3333333333333333
 O3 O 0.9010999996666667 0.5677666663333333 0.3333333333333333
 O3 O 0.9010999996666667 0.5677666663333333 0.3333333333333333
 O3 O 0.9010999996666667 0.43223333366666666
  0.3333333333333333
 O3 O 0.9010999996666667 0.43223333366666666
  0.3333333333333333
 O3 O 0.765566667 0.5677666663333333 0.3333333333333333
 O3 O 0.765566667 0.5677666663333333 0.3333333333333333
 O2 O 0.9632333319999999 0.37009999899999996
  0.4461333353333333
 O2 O 0.703433315 0.37009999899999996 0.4461333353333333
 O2 O 0.9632333319999999 0.6298999986666667 0.5538666646666667
 O2 O 0.703433315 0.6298999986666667 0.5538666646666667
 O2 O 0.9632333319999999 0.6298999986666667 0.4461333353333333
 O2 O 0.703433315 0.6298999986666667 0.4461333353333333
 O2 O 0.9632333319999999 0.37009999899999996
  0.5538666646666667
 O2 O 0.703433315 0.37009999899999996 0.5538666646666667
 O2 O 0.7794666686666667 0.6298999986666667
  0.37009999899999996
 O2 O 0.7794666686666667 0.37009998166666663
  0.37009999899999996
 O2 O 0.887199998 0.6298999986666667 0.6298999986666667
 O2 O 0.887199998 0.37009998166666663 0.6298999986666667
 O2 O 0.7794666686666667 0.6298999986666667 0.6298999986666667
 O2 O 0.7794666686666667 0.37009998166666663
  0.6298999986666667
 O2 O 0.887199998 0.6298999986666667 0.37009999899999996
 O2 O 0.887199998 0.37009998166666663 0.37009999899999996
 O2 O 0.7034333323333333 0.4461333353333333 0.6298999986666667
 O2 O 0.7034333323333333 0.4461333353333333
  0.37009998166666663
 O2 O 0.9632333319999999 0.5538666646666667 0.6298999986666667
 O2 O 0.9632333319999999 0.5538666646666667
  0.37009998166666663
 O2 O 0.9632333319999999 0.4461333353333333 0.6298999986666667
 O2 O 0.9632333319999999 0.4461333353333333
  0.37009998166666663
 O2 O 0.7034333323333333 0.5538666646666667 0.6298999986666667
 O2 O 0.7034333323333333 0.5538666646666667
  0.37009998166666663
 O2 O 0.7034333323333333 0.6298999986666667 0.5538666646666667
 O2 O 0.7034333323333333 0.37009998166666663
  0.5538666646666667
 O2 O 0.9632333319999999 0.6298999986666667 0.4461333353333333
 O2 O 0.9632333319999999 0.37009998166666663
  0.4461333353333333
 O2 O 0.9632333319999999 0.6298999986666667 0.5538666646666667
 O2 O 0.9632333319999999 0.37009998166666663
  0.5538666646666667
 O2 O 0.7034333323333333 0.6298999986666667 0.4461333353333333
 O2 O 0.7034333323333333 0.37009998166666663
  0.4461333353333333
 O2 O 0.9632333319999999 0.4461333353333333 0.6298999986666667
 O2 O 0.703433315 0.4461333353333333 0.6298999986666667
 O2 O 0.9632333319999999 0.5538666646666667
  0.37009999899999996
 O2 O 0.703433315 0.5538666646666667 0.37009999899999996
 O2 O 0.9632333319999999 0.4461333353333333
  0.37009999899999996
 O2 O 0.703433315 0.4461333353333333 0.37009999899999996
 O2 O 0.9632333319999999 0.5538666646666667 0.6298999986666667
 O2 O 0.703433315 0.5538666646666667 0.6298999986666667
 O2 O 0.7794666686666667 0.37009999899999996
  0.6298999986666667
 O2 O 0.7794666686666667 0.37009999899999996
  0.37009998166666663
 O2 O 0.887199998 0.6298999986666667 0.6298999986666667
 O2 O 0.887199998 0.6298999986666667 0.37009998166666663
 O2 O 0.7794666686666667 0.6298999986666667 0.6298999986666667
 O2 O 0.7794666686666667 0.6298999986666667
  0.37009998166666663
 O2 O 0.887199998 0.37009999899999996 0.6298999986666667
 O2 O 0.887199998 0.37009999899999996 0.37009998166666663
 T1 Si 0.6666666666666666 0.3941000003333333
  0.45613333566666664
 T1 Si 0.6666666666666666 0.3941000003333333
  0.45613333566666664
 T1 Si 0.6666666666666666 0.6059000093333333 0.543866674
 T1 Si 0.6666666666666666 0.6059000093333333 0.543866674
 T1 Si 0.6666666666666666 0.6059000093333333
  0.45613333566666664
 T1 Si 0.6666666666666666 0.6059000093333333
  0.45613333566666664
 T1 Si 0.6666666666666666 0.3941000003333333 0.543866674
 T1 Si 0.6666666666666666 0.3941000003333333 0.543866674
 T1 Si 0.789466669 0.3333333333333333 0.3941000003333333
 T1 Si 0.789466669 0.3333333333333333 0.3941000003333333
 T1 Si 0.8772000073333333 0.3333333333333333
  0.6059000093333333
 T1 Si 0.8772000073333333 0.3333333333333333
  0.6059000093333333
 T1 Si 0.789466669 0.3333333333333333 0.6059000093333333
 T1 Si 0.789466669 0.3333333333333333 0.6059000093333333
 T1 Si 0.8772000073333333 0.3333333333333333
  0.3941000003333333
 T1 Si 0.8772000073333333 0.3333333333333333
  0.3941000003333333
 T1 Si 0.7274333336666666 0.45613333566666664
  0.3333333333333333
 T1 Si 0.7274333336666666 0.45613333566666664
  0.3333333333333333
 T1 Si 0.9392333426666666 0.543866674 0.3333333333333333
 T1 Si 0.9392333426666666 0.543866674 0.3333333333333333
 T1 Si 0.9392333426666666 0.45613333566666664
  0.3333333333333333
 T1 Si 0.9392333426666666 0.45613333566666664
  0.3333333333333333
 T1 Si 0.7274333336666666 0.543866674 0.3333333333333333
 T1 Si 0.7274333336666666 0.543866674 0.3333333333333333
 T1 Si 0.7274333336666666 0.3333333333333333 0.543866674
 T1 Si 0.7274333336666666 0.3333333333333333 0.543866674
 T1 Si 0.9392333426666666 0.3333333333333333
  0.45613333566666664
 T1 Si 0.9392333426666666 0.3333333333333333
  0.45613333566666664
 T1 Si 0.9392333426666666 0.3333333333333333 0.543866674
 T1 Si 0.9392333426666666 0.3333333333333333 0.543866674
 T1 Si 0.7274333336666666 0.3333333333333333
  0.45613333566666664
 T1 Si 0.7274333336666666 0.3333333333333333
  0.45613333566666664
 T1 Si 0.6666666666666666 0.45613333566666664
  0.6059000093333333
 T1 Si 0.6666666666666666 0.45613333566666664
  0.6059000093333333
 T1 Si 0.6666666666666666 0.543866674 0.3941000003333333
 T1 Si 0.6666666666666666 0.543866674 0.3941000003333333
 T1 Si 0.6666666666666666 0.45613333566666664
  0.3941000003333333
 T1 Si 0.6666666666666666 0.45613333566666664
  0.3941000003333333
 T1 Si 0.6666666666666666 0.543866674 0.6059000093333333
 T1 Si 0.6666666666666666 0.543866674 0.6059000093333333
 T1 Si 0.789466669 0.3941000003333333 0.3333333333333333
 T1 Si 0.789466669 0.3941000003333333 0.3333333333333333
 T1 Si 0.8772000073333333 0.6059000093333333
  0.3333333333333333
 T1 Si 0.8772000073333333 0.6059000093333333
  0.3333333333333333
 T1 Si 0.789466669 0.6059000093333333 0.3333333333333333
 T1 Si 0.789466669 0.6059000093333333 0.3333333333333333
 T1 Si 0.8772000073333333 0.3941000003333333
  0.3333333333333333
 T1 Si 0.8772000073333333 0.3941000003333333
  0.3333333333333333
 O1 O 0.0 0.7374000003333333 0.5
 O1 O 0.0 0.7374000003333333 0.5
 O1 O 0.0 0.9292666713333333 0.5
 O1 O 0.0 0.9292666713333333 0.5
 O1 O 0.16666666666666666 0.6666666666666666 0.404066667
 O1 O 0.16666666666666666 0.6666666666666666 0.404066667
 O1 O 0.16666666666666666 0.6666666666666666 0.595933338
 O1 O 0.16666666666666666 0.6666666666666666 0.595933338
 O1 O 0.07073333366666666 0.8333333333333333
  0.3333333333333333
 O1 O 0.07073333366666666 0.8333333333333333
  0.3333333333333333
 O1 O 0.26260000466666666 0.8333333333333333
  0.3333333333333333
 O1 O 0.26260000466666666 0.8333333333333333
  0.3333333333333333
 O1 O 0.07073333366666666 0.6666666666666666 0.5
 O1 O 0.07073333366666666 0.6666666666666666 0.5
 O1 O 0.26260000466666666 0.6666666666666666 0.5
 O1 O 0.26260000466666666 0.6666666666666666 0.5
 O1 O 0.0 0.8333333333333333 0.595933338
 O1 O 0.0 0.8333333333333333 0.595933338
 O1 O 0.0 0.8333333333333333 0.404066667
 O1 O 0.0 0.8333333333333333 0.404066667
 O1 O 0.16666666666666666 0.7374000003333333
  0.3333333333333333
 O1 O 0.16666666666666666 0.7374000003333333
  0.3333333333333333
 O1 O 0.16666666666666666 0.9292666713333333
  0.3333333333333333
 O1 O 0.16666666666666666 0.9292666713333333
  0.3333333333333333
 O2 O 0.03676666566666666 0.7034333323333333
  0.4461333353333333
 O2 O 0.29656666533333337 0.9632333319999999
  0.5538666646666667
 O2 O 0.29656666533333337 0.9632333319999999
  0.4461333353333333
 O2 O 0.03676666566666666 0.7034333323333333
  0.5538666646666667
 O2 O 0.29656666533333337 0.7034333323333333
  0.5538666646666667
 O2 O 0.03676666566666666 0.9632333319999999
  0.4461333353333333
 O2 O 0.03676666566666666 0.9632333319999999
  0.5538666646666667
 O2 O 0.29656666533333337 0.7034333323333333
  0.4461333353333333
 O2 O 0.112800002 0.7034333323333333 0.37009999899999996
 O2 O 0.22053333133333333 0.9632333319999999
  0.6298999986666667
 O2 O 0.112800002 0.9632333319999999 0.6298999986666667
 O2 O 0.22053333133333333 0.7034333323333333
  0.37009999899999996
 O2 O 0.22053333133333333 0.9632333319999999
  0.37009999899999996
 O2 O 0.112800002 0.7034333323333333 0.6298999986666667
 O2 O 0.22053333133333333 0.7034333323333333
  0.6298999986666667
 O2 O 0.112800002 0.9632333319999999 0.37009999899999996
 O2 O 0.03676666566666666 0.7794666686666667
  0.37009999899999996
 O2 O 0.29656666533333337 0.887199998 0.6298999986666667
 O2 O 0.29656666533333337 0.7794666686666667
  0.6298999986666667
 O2 O 0.03676666566666666 0.887199998 0.37009999899999996
 O2 O 0.03676666566666666 0.887199998 0.6298999986666667
 O2 O 0.29656666533333337 0.7794666686666667
  0.37009999899999996
 O2 O 0.29656666533333337 0.887199998 0.37009999899999996
 O2 O 0.03676666566666666 0.7794666686666667
  0.6298999986666667
 O3 O 0.0 0.765566667 0.43223333366666666
 O3 O 0.0 0.765566667 0.43223333366666666
 O3 O 0.0 0.9010999996666667 0.5677666663333333
 O3 O 0.0 0.9010999996666667 0.5677666663333333
 O3 O 0.0 0.9010999996666667 0.43223333366666666
 O3 O 0.0 0.9010999996666667 0.43223333366666666
 O3 O 0.0 0.765566667 0.5677666663333333
 O3 O 0.0 0.765566667 0.5677666663333333
 O3 O 0.09890000033333333 0.6666666666666666
  0.43223333366666666
 O3 O 0.09890000033333333 0.6666666666666666
  0.43223333366666666
 O3 O 0.234433333 0.6666666666666666 0.5677666663333333
 O3 O 0.234433333 0.6666666666666666 0.5677666663333333
 O3 O 0.09890000033333333 0.6666666666666666
  0.5677666663333333
 O3 O 0.09890000033333333 0.6666666666666666
  0.5677666663333333
 O3 O 0.234433333 0.6666666666666666 0.43223333366666666
 O3 O 0.234433333 0.6666666666666666 0.43223333366666666
 O3 O 0.09890000033333333 0.765566667 0.3333333333333333
 O3 O 0.09890000033333333 0.765566667 0.3333333333333333
 O3 O 0.234433333 0.9010999996666667 0.3333333333333333
 O3 O 0.234433333 0.9010999996666667 0.3333333333333333
 O3 O 0.234433333 0.765566667 0.3333333333333333
 O3 O 0.234433333 0.765566667 0.3333333333333333
 O3 O 0.09890000033333333 0.9010999996666667
  0.3333333333333333
 O3 O 0.09890000033333333 0.9010999996666667
  0.3333333333333333
 O2 O 0.29656666533333337 0.7034333323333333
  0.4461333353333333
 O2 O 0.03676664833333333 0.7034333323333333
  0.4461333353333333
 O2 O 0.29656666533333337 0.9632333319999999
  0.5538666646666667
 O2 O 0.03676664833333333 0.9632333319999999
  0.5538666646666667
 O2 O 0.29656666533333337 0.9632333319999999
  0.4461333353333333
 O2 O 0.03676664833333333 0.9632333319999999
  0.4461333353333333
 O2 O 0.29656666533333337 0.7034333323333333
  0.5538666646666667
 O2 O 0.03676664833333333 0.7034333323333333
  0.5538666646666667
 O2 O 0.112800002 0.9632333319999999 0.37009999899999996
 O2 O 0.112800002 0.703433315 0.37009999899999996
 O2 O 0.22053333133333333 0.9632333319999999
  0.6298999986666667
 O2 O 0.22053333133333333 0.703433315 0.6298999986666667
 O2 O 0.112800002 0.9632333319999999 0.6298999986666667
 O2 O 0.112800002 0.703433315 0.6298999986666667
 O2 O 0.22053333133333333 0.9632333319999999
  0.37009999899999996
 O2 O 0.22053333133333333 0.703433315 0.37009999899999996
 O2 O 0.03676666566666666 0.7794666686666667
  0.6298999986666667
 O2 O 0.03676666566666666 0.7794666686666667
  0.37009998166666663
 O2 O 0.29656666533333337 0.887199998 0.6298999986666667
 O2 O 0.29656666533333337 0.887199998 0.37009998166666663
 O2 O 0.29656666533333337 0.7794666686666667
  0.6298999986666667
 O2 O 0.29656666533333337 0.7794666686666667
  0.37009998166666663
 O2 O 0.03676666566666666 0.887199998 0.6298999986666667
 O2 O 0.03676666566666666 0.887199998 0.37009998166666663
 O2 O 0.03676666566666666 0.9632333319999999
  0.5538666646666667
 O2 O 0.03676666566666666 0.703433315 0.5538666646666667
 O2 O 0.29656666533333337 0.9632333319999999
  0.4461333353333333
 O2 O 0.29656666533333337 0.703433315 0.4461333353333333
 O2 O 0.29656666533333337 0.9632333319999999
  0.5538666646666667
 O2 O 0.29656666533333337 0.703433315 0.5538666646666667
 O2 O 0.03676666566666666 0.9632333319999999
  0.4461333353333333
 O2 O 0.03676666566666666 0.703433315 0.4461333353333333
 O2 O 0.29656666533333337 0.7794666686666667
  0.6298999986666667
 O2 O 0.03676664833333333 0.7794666686666667
  0.6298999986666667
 O2 O 0.29656666533333337 0.887199998 0.37009999899999996
 O2 O 0.03676664833333333 0.887199998 0.37009999899999996
 O2 O 0.29656666533333337 0.7794666686666667
  0.37009999899999996
 O2 O 0.03676664833333333 0.7794666686666667
  0.37009999899999996
 O2 O 0.29656666533333337 0.887199998 0.6298999986666667
 O2 O 0.03676664833333333 0.887199998 0.6298999986666667
 O2 O 0.112800002 0.7034333323333333 0.6298999986666667
 O2 O 0.112800002 0.7034333323333333 0.37009998166666663
 O2 O 0.22053333133333333 0.9632333319999999
  0.6298999986666667
 O2 O 0.22053333133333333 0.9632333319999999
  0.37009998166666663
 O2 O 0.112800002 0.9632333319999999 0.6298999986666667
 O2 O 0.112800002 0.9632333319999999 0.37009998166666663
 O2 O 0.22053333133333333 0.7034333323333333
  0.6298999986666667
 O2 O 0.22053333133333333 0.7034333323333333
  0.37009998166666663
 T1 Si 0.0 0.7274333336666666 0.45613333566666664
 T1 Si 0.0 0.7274333336666666 0.45613333566666664
 T1 Si 0.0 0.9392333426666666 0.543866674
 T1 Si 0.0 0.9392333426666666 0.543866674
 T1 Si 0.0 0.9392333426666666 0.45613333566666664
 T1 Si 0.0 0.9392333426666666 0.45613333566666664
 T1 Si 0.0 0.7274333336666666 0.543866674
 T1 Si 0.0 0.7274333336666666 0.543866674
 T1 Si 0.12280000233333332 0.6666666666666666
  0.3941000003333333
 T1 Si 0.12280000233333332 0.6666666666666666
  0.3941000003333333
 T1 Si 0.21053334066666665 0.6666666666666666
  0.6059000093333333
 T1 Si 0.21053334066666665 0.6666666666666666
  0.6059000093333333
 T1 Si 0.12280000233333332 0.6666666666666666
  0.6059000093333333
 T1 Si 0.12280000233333332 0.6666666666666666
  0.6059000093333333
 T1 Si 0.21053334066666665 0.6666666666666666
  0.3941000003333333
 T1 Si 0.21053334066666665 0.6666666666666666
  0.3941000003333333
 T1 Si 0.060766666999999996 0.789466669 0.3333333333333333
 T1 Si 0.060766666999999996 0.789466669 0.3333333333333333
 T1 Si 0.272566676 0.8772000073333333 0.3333333333333333
 T1 Si 0.272566676 0.8772000073333333 0.3333333333333333
 T1 Si 0.272566676 0.789466669 0.3333333333333333
 T1 Si 0.272566676 0.789466669 0.3333333333333333
 T1 Si 0.060766666999999996 0.8772000073333333
  0.3333333333333333
 T1 Si 0.060766666999999996 0.8772000073333333
  0.3333333333333333
 T1 Si 0.060766666999999996 0.6666666666666666 0.543866674
 T1 Si 0.060766666999999996 0.6666666666666666 0.543866674
 T1 Si 0.272566676 0.6666666666666666 0.45613333566666664
 T1 Si 0.272566676 0.6666666666666666 0.45613333566666664
 T1 Si 0.272566676 0.6666666666666666 0.543866674
 T1 Si 0.272566676 0.6666666666666666 0.543866674
 T1 Si 0.060766666999999996 0.6666666666666666
  0.45613333566666664
 T1 Si 0.060766666999999996 0.6666666666666666
  0.45613333566666664
 T1 Si 0.0 0.789466669 0.6059000093333333
 T1 Si 0.0 0.789466669 0.6059000093333333
 T1 Si 0.0 0.8772000073333333 0.3941000003333333
 T1 Si 0.0 0.8772000073333333 0.3941000003333333
 T1 Si 0.0 0.789466669 0.3941000003333333
 T1 Si 0.0 0.789466669 0.3941000003333333
 T1 Si 0.0 0.8772000073333333 0.6059000093333333
 T1 Si 0.0 0.8772000073333333 0.6059000093333333
 T1 Si 0.12280000233333332 0.7274333336666666
  0.3333333333333333
 T1 Si 0.12280000233333332 0.7274333336666666
  0.3333333333333333
 T1 Si 0.21053334066666665 0.9392333426666666
  0.3333333333333333
 T1 Si 0.21053334066666665 0.9392333426666666
  0.3333333333333333
 T1 Si 0.12280000233333332 0.9392333426666666
  0.3333333333333333
 T1 Si 0.12280000233333332 0.9392333426666666
  0.3333333333333333
 T1 Si 0.21053334066666665 0.7274333336666666
  0.3333333333333333
 T1 Si 0.21053334066666665 0.7274333336666666
  0.3333333333333333
 O1 O 0.3333333333333333 0.7374000003333333 0.5
 O1 O 0.3333333333333333 0.7374000003333333 0.5
 O1 O 0.3333333333333333 0.9292666713333333 0.5
 O1 O 0.3333333333333333 0.9292666713333333 0.5
 O1 O 0.5 0.6666666666666666 0.404066667
 O1 O 0.5 0.6666666666666666 0.404066667
 O1 O 0.5 0.6666666666666666 0.595933338
 O1 O 0.5 0.6666666666666666 0.595933338
 O1 O 0.404066667 0.8333333333333333 0.3333333333333333
 O1 O 0.404066667 0.8333333333333333 0.3333333333333333
 O1 O 0.595933338 0.8333333333333333 0.3333333333333333
 O1 O 0.595933338 0.8333333333333333 0.3333333333333333
 O1 O 0.404066667 0.6666666666666666 0.5
 O1 O 0.404066667 0.6666666666666666 0.5
 O1 O 0.595933338 0.6666666666666666 0.5
 O1 O 0.595933338 0.6666666666666666 0.5
 O1 O 0.3333333333333333 0.8333333333333333 0.595933338
 O1 O 0.3333333333333333 0.8333333333333333 0.595933338
 O1 O 0.3333333333333333 0.8333333333333333 0.404066667
 O1 O 0.3333333333333333 0.8333333333333333 0.404066667
 O1 O 0.5 0.7374000003333333 0.3333333333333333
 O1 O 0.5 0.7374000003333333 0.3333333333333333
 O1 O 0.5 0.9292666713333333 0.3333333333333333
 O1 O 0.5 0.9292666713333333 0.3333333333333333
 O2 O 0.37009999899999996 0.7034333323333333
  0.4461333353333333
 O2 O 0.6298999986666667 0.9632333319999999 0.5538666646666667
 O2 O 0.6298999986666667 0.9632333319999999 0.4461333353333333
 O2 O 0.37009999899999996 0.7034333323333333
  0.5538666646666667
 O2 O 0.6298999986666667 0.7034333323333333 0.5538666646666667
 O2 O 0.37009999899999996 0.9632333319999999
  0.4461333353333333
 O2 O 0.37009999899999996 0.9632333319999999
  0.5538666646666667
 O2 O 0.6298999986666667 0.7034333323333333 0.4461333353333333
 O2 O 0.4461333353333333 0.7034333323333333
  0.37009999899999996
 O2 O 0.5538666646666667 0.9632333319999999 0.6298999986666667
 O2 O 0.4461333353333333 0.9632333319999999 0.6298999986666667
 O2 O 0.5538666646666667 0.7034333323333333
  0.37009999899999996
 O2 O 0.5538666646666667 0.9632333319999999
  0.37009999899999996
 O2 O 0.4461333353333333 0.7034333323333333 0.6298999986666667
 O2 O 0.5538666646666667 0.7034333323333333 0.6298999986666667
 O2 O 0.4461333353333333 0.9632333319999999
  0.37009999899999996
 O2 O 0.37009999899999996 0.7794666686666667
  0.37009999899999996
 O2 O 0.6298999986666667 0.887199998 0.6298999986666667
 O2 O 0.6298999986666667 0.7794666686666667 0.6298999986666667
 O2 O 0.37009999899999996 0.887199998 0.37009999899999996
 O2 O 0.37009999899999996 0.887199998 0.6298999986666667
 O2 O 0.6298999986666667 0.7794666686666667
  0.37009999899999996
 O2 O 0.6298999986666667 0.887199998 0.37009999899999996
 O2 O 0.37009999899999996 0.7794666686666667
  0.6298999986666667
 O3 O 0.3333333333333333 0.765566667 0.43223333366666666
 O3 O 0.3333333333333333 0.765566667 0.43223333366666666
 O3 O 0.3333333333333333 0.9010999996666667 0.5677666663333333
 O3 O 0.3333333333333333 0.9010999996666667 0.5677666663333333
 O3 O 0.3333333333333333 0.9010999996666667
  0.43223333366666666
 O3 O 0.3333333333333333 0.9010999996666667
  0.43223333366666666
 O3 O 0.3333333333333333 0.765566667 0.5677666663333333
 O3 O 0.3333333333333333 0.765566667 0.5677666663333333
 O3 O 0.43223333366666666 0.6666666666666666
  0.43223333366666666
 O3 O 0.43223333366666666 0.6666666666666666
  0.43223333366666666
 O3 O 0.5677666663333333 0.6666666666666666 0.5677666663333333
 O3 O 0.5677666663333333 0.6666666666666666 0.5677666663333333
 O3 O 0.43223333366666666 0.6666666666666666
  0.5677666663333333
 O3 O 0.43223333366666666 0.6666666666666666
  0.5677666663333333
 O3 O 0.5677666663333333 0.6666666666666666
  0.43223333366666666
 O3 O 0.5677666663333333 0.6666666666666666
  0.43223333366666666
 O3 O 0.43223333366666666 0.765566667 0.3333333333333333
 O3 O 0.43223333366666666 0.765566667 0.3333333333333333
 O3 O 0.5677666663333333 0.9010999996666667 0.3333333333333333
 O3 O 0.5677666663333333 0.9010999996666667 0.3333333333333333
 O3 O 0.5677666663333333 0.765566667 0.3333333333333333
 O3 O 0.5677666663333333 0.765566667 0.3333333333333333
 O3 O 0.43223333366666666 0.9010999996666667
  0.3333333333333333
 O3 O 0.43223333366666666 0.9010999996666667
  0.3333333333333333
 O2 O 0.6298999986666667 0.7034333323333333 0.4461333353333333
 O2 O 0.37009998166666663 0.7034333323333333
  0.4461333353333333
 O2 O 0.6298999986666667 0.9632333319999999 0.5538666646666667
 O2 O 0.37009998166666663 0.9632333319999999
  0.5538666646666667
 O2 O 0.6298999986666667 0.9632333319999999 0.4461333353333333
 O2 O 0.37009998166666663 0.9632333319999999
  0.4461333353333333
 O2 O 0.6298999986666667 0.7034333323333333 0.5538666646666667
 O2 O 0.37009998166666663 0.7034333323333333
  0.5538666646666667
 O2 O 0.4461333353333333 0.9632333319999999
  0.37009999899999996
 O2 O 0.4461333353333333 0.703433315 0.37009999899999996
 O2 O 0.5538666646666667 0.9632333319999999 0.6298999986666667
 O2 O 0.5538666646666667 0.703433315 0.6298999986666667
 O2 O 0.4461333353333333 0.9632333319999999 0.6298999986666667
 O2 O 0.4461333353333333 0.703433315 0.6298999986666667
 O2 O 0.5538666646666667 0.9632333319999999
  0.37009999899999996
 O2 O 0.5538666646666667 0.703433315 0.37009999899999996
 O2 O 0.37009999899999996 0.7794666686666667
  0.6298999986666667
 O2 O 0.37009999899999996 0.7794666686666667
  0.37009998166666663
 O2 O 0.6298999986666667 0.887199998 0.6298999986666667
 O2 O 0.6298999986666667 0.887199998 0.37009998166666663
 O2 O 0.6298999986666667 0.7794666686666667 0.6298999986666667
 O2 O 0.6298999986666667 0.7794666686666667
  0.37009998166666663
 O2 O 0.37009999899999996 0.887199998 0.6298999986666667
 O2 O 0.37009999899999996 0.887199998 0.37009998166666663
 O2 O 0.37009999899999996 0.9632333319999999
  0.5538666646666667
 O2 O 0.37009999899999996 0.703433315 0.5538666646666667
 O2 O 0.6298999986666667 0.9632333319999999 0.4461333353333333
 O2 O 0.6298999986666667 0.703433315 0.4461333353333333
 O2 O 0.6298999986666667 0.9632333319999999 0.5538666646666667
 O2 O 0.6298999986666667 0.703433315 0.5538666646666667
 O2 O 0.37009999899999996 0.9632333319999999
  0.4461333353333333
 O2 O 0.37009999899999996 0.703433315 0.4461333353333333
 O2 O 0.6298999986666667 0.7794666686666667 0.6298999986666667
 O2 O 0.37009998166666663 0.7794666686666667
  0.6298999986666667
 O2 O 0.6298999986666667 0.887199998 0.37009999899999996
 O2 O 0.37009998166666663 0.887199998 0.37009999899999996
 O2 O 0.6298999986666667 0.7794666686666667
  0.37009999899999996
 O2 O 0.37009998166666663 0.7794666686666667
  0.37009999899999996
 O2 O 0.6298999986666667 0.887199998 0.6298999986666667
 O2 O 0.37009998166666663 0.887199998 0.6298999986666667
 O2 O 0.4461333353333333 0.7034333323333333 0.6298999986666667
 O2 O 0.4461333353333333 0.7034333323333333
  0.37009998166666663
 O2 O 0.5538666646666667 0.9632333319999999 0.6298999986666667
 O2 O 0.5538666646666667 0.9632333319999999
  0.37009998166666663
 O2 O 0.4461333353333333 0.9632333319999999 0.6298999986666667
 O2 O 0.4461333353333333 0.9632333319999999
  0.37009998166666663
 O2 O 0.5538666646666667 0.7034333323333333 0.6298999986666667
 O2 O 0.5538666646666667 0.7034333323333333
  0.37009998166666663
 T1 Si 0.3333333333333333 0.7274333336666666
  0.45613333566666664
 T1 Si 0.3333333333333333 0.7274333336666666
  0.45613333566666664
 T1 Si 0.3333333333333333 0.9392333426666666 0.543866674
 T1 Si 0.3333333333333333 0.9392333426666666 0.543866674
 T1 Si 0.3333333333333333 0.9392333426666666
  0.45613333566666664
 T1 Si 0.3333333333333333 0.9392333426666666
  0.45613333566666664
 T1 Si 0.3333333333333333 0.7274333336666666 0.543866674
 T1 Si 0.3333333333333333 0.7274333336666666 0.543866674
 T1 Si 0.45613333566666664 0.6666666666666666
  0.3941000003333333
 T1 Si 0.45613333566666664 0.6666666666666666
  0.3941000003333333
 T1 Si 0.543866674 0.6666666666666666 0.6059000093333333
 T1 Si 0.543866674 0.6666666666666666 0.6059000093333333
 T1 Si 0.45613333566666664 0.6666666666666666
  0.6059000093333333
 T1 Si 0.45613333566666664 0.6666666666666666
  0.6059000093333333
 T1 Si 0.543866674 0.6666666666666666 0.3941000003333333
 T1 Si 0.543866674 0.6666666666666666 0.3941000003333333
 T1 Si 0.3941000003333333 0.789466669 0.3333333333333333
 T1 Si 0.3941000003333333 0.789466669 0.3333333333333333
 T1 Si 0.6059000093333333 0.8772000073333333
  0.3333333333333333
 T1 Si 0.6059000093333333 0.8772000073333333
  0.3333333333333333
 T1 Si 0.6059000093333333 0.789466669 0.3333333333333333
 T1 Si 0.6059000093333333 0.789466669 0.3333333333333333
 T1 Si 0.3941000003333333 0.8772000073333333
  0.3333333333333333
 T1 Si 0.3941000003333333 0.8772000073333333
  0.3333333333333333
 T1 Si 0.3941000003333333 0.6666666666666666 0.543866674
 T1 Si 0.3941000003333333 0.6666666666666666 0.543866674
 T1 Si 0.6059000093333333 0.6666666666666666
  0.45613333566666664
 T1 Si 0.6059000093333333 0.6666666666666666
  0.45613333566666664
 T1 Si 0.6059000093333333 0.6666666666666666 0.543866674
 T1 Si 0.6059000093333333 0.6666666666666666 0.543866674
 T1 Si 0.3941000003333333 0.6666666666666666
  0.45613333566666664
 T1 Si 0.3941000003333333 0.6666666666666666
  0.45613333566666664
 T1 Si 0.3333333333333333 0.789466669 0.6059000093333333
 T1 Si 0.3333333333333333 0.789466669 0.6059000093333333
 T1 Si 0.3333333333333333 0.8772000073333333
  0.3941000003333333
 T1 Si 0.3333333333333333 0.8772000073333333
  0.3941000003333333
 T1 Si 0.3333333333333333 0.789466669 0.3941000003333333
 T1 Si 0.3333333333333333 0.789466669 0.3941000003333333
 T1 Si 0.3333333333333333 0.8772000073333333
  0.6059000093333333
 T1 Si 0.3333333333333333 0.8772000073333333
  0.6059000093333333
 T1 Si 0.45613333566666664 0.7274333336666666
  0.3333333333333333
 T1 Si 0.45613333566666664 0.7274333336666666
  0.3333333333333333
 T1 Si 0.543866674 0.9392333426666666 0.3333333333333333
 T1 Si 0.543866674 0.9392333426666666 0.3333333333333333
 T1 Si 0.45613333566666664 0.9392333426666666
  0.3333333333333333
 T1 Si 0.45613333566666664 0.9392333426666666
  0.3333333333333333
 T1 Si 0.543866674 0.7274333336666666 0.3333333333333333
 T1 Si 0.543866674 0.7274333336666666 0.3333333333333333
 O1 O 0.6666666666666666 0.7374000003333333 0.5
 O1 O 0.6666666666666666 0.7374000003333333 0.5
 O1 O 0.6666666666666666 0.9292666713333333 0.5
 O1 O 0.6666666666666666 0.9292666713333333 0.5
 O1 O 0.8333333333333333 0.6666666666666666 0.404066667
 O1 O 0.8333333333333333 0.6666666666666666 0.404066667
 O1 O 0.8333333333333333 0.6666666666666666 0.595933338
 O1 O 0.8333333333333333 0.6666666666666666 0.595933338
 O1 O 0.7374000003333333 0.8333333333333333 0.3333333333333333
 O1 O 0.7374000003333333 0.8333333333333333 0.3333333333333333
 O1 O 0.9292666713333333 0.8333333333333333 0.3333333333333333
 O1 O 0.9292666713333333 0.8333333333333333 0.3333333333333333
 O1 O 0.7374000003333333 0.6666666666666666 0.5
 O1 O 0.7374000003333333 0.6666666666666666 0.5
 O1 O 0.9292666713333333 0.6666666666666666 0.5
 O1 O 0.9292666713333333 0.6666666666666666 0.5
 O1 O 0.6666666666666666 0.8333333333333333 0.595933338
 O1 O 0.6666666666666666 0.8333333333333333 0.595933338
 O1 O 0.6666666666666666 0.8333333333333333 0.404066667
 O1 O 0.6666666666666666 0.8333333333333333 0.404066667
 O1 O 0.8333333333333333 0.7374000003333333 0.3333333333333333
 O1 O 0.8333333333333333 0.7374000003333333 0.3333333333333333
 O1 O 0.8333333333333333 0.9292666713333333 0.3333333333333333
 O1 O 0.8333333333333333 0.9292666713333333 0.3333333333333333
 O2 O 0.7034333323333333 0.7034333323333333 0.4461333353333333
 O2 O 0.9632333319999999 0.9632333319999999 0.5538666646666667
 O2 O 0.9632333319999999 0.9632333319999999 0.4461333353333333
 O2 O 0.7034333323333333 0.7034333323333333 0.5538666646666667
 O2 O 0.9632333319999999 0.7034333323333333 0.5538666646666667
 O2 O 0.7034333323333333 0.9632333319999999 0.4461333353333333
 O2 O 0.7034333323333333 0.9632333319999999 0.5538666646666667
 O2 O 0.9632333319999999 0.7034333323333333 0.4461333353333333
 O2 O 0.7794666686666667 0.7034333323333333
  0.37009999899999996
 O2 O 0.887199998 0.9632333319999999 0.6298999986666667
 O2 O 0.7794666686666667 0.9632333319999999 0.6298999986666667
 O2 O 0.887199998 0.7034333323333333 0.37009999899999996
 O2 O 0.887199998 0.9632333319999999 0.37009999899999996
 O2 O 0.7794666686666667 0.7034333323333333 0.6298999986666667
 O2 O 0.887199998 0.7034333323333333 0.6298999986666667
 O2 O 0.7794666686666667 0.9632333319999999
  0.37009999899999996
 O2 O 0.7034333323333333 0.7794666686666667
  0.37009999899999996
 O2 O 0.9632333319999999 0.887199998 0.6298999986666667
 O2 O 0.9632333319999999 0.7794666686666667 0.6298999986666667
 O2 O 0.7034333323333333 0.887199998 0.37009999899999996
 O2 O 0.7034333323333333 0.887199998 0.6298999986666667
 O2 O 0.9632333319999999 0.7794666686666667
  0.37009999899999996
 O2 O 0.9632333319999999 0.887199998 0.37009999899999996
 O2 O 0.7034333323333333 0.7794666686666667 0.6298999986666667
 O3 O 0.6666666666666666 0.765566667 0.43223333366666666
 O3 O 0.6666666666666666 0.765566667 0.43223333366666666
 O3 O 0.6666666666666666 0.9010999996666667 0.5677666663333333
 O3 O 0.6666666666666666 0.9010999996666667 0.5677666663333333
 O3 O 0.6666666666666666 0.9010999996666667
  0.43223333366666666
 O3 O 0.6666666666666666 0.9010999996666667
  0.43223333366666666
 O3 O 0.6666666666666666 0.765566667 0.5677666663333333
 O3 O 0.6666666666666666 0.765566667 0.5677666663333333
 O3 O 0.765566667 0.6666666666666666 0.43223333366666666
 O3 O 0.765566667 0.6666666666666666 0.43223333366666666
 O3 O 0.9010999996666667 0.6666666666666666 0.5677666663333333
 O3 O 0.9010999996666667 0.6666666666666666 0.5677666663333333
 O3 O 0.765566667 0.6666666666666666 0.5677666663333333
 O3 O 0.765566667 0.6666666666666666 0.5677666663333333
 O3 O 0.9010999996666667 0.6666666666666666
  0.43223333366666666
 O3 O 0.9010999996666667 0.6666666666666666
  0.43223333366666666
 O3 O 0.765566667 0.765566667 0.3333333333333333
 O3 O 0.765566667 0.765566667 0.3333333333333333
 O3 O 0.9010999996666667 0.9010999996666667 0.3333333333333333
 O3 O 0.9010999996666667 0.9010999996666667 0.3333333333333333
 O3 O 0.9010999996666667 0.765566667 0.3333333333333333
 O3 O 0.9010999996666667 0.765566667 0.3333333333333333
 O3 O 0.765566667 0.9010999996666667 0.3333333333333333
 O3 O 0.765566667 0.9010999996666667 0.3333333333333333
 O2 O 0.9632333319999999 0.7034333323333333 0.4461333353333333
 O2 O 0.703433315 0.7034333323333333 0.4461333353333333
 O2 O 0.9632333319999999 0.9632333319999999 0.5538666646666667
 O2 O 0.703433315 0.9632333319999999 0.5538666646666667
 O2 O 0.9632333319999999 0.9632333319999999 0.4461333353333333
 O2 O 0.703433315 0.9632333319999999 0.4461333353333333
 O2 O 0.9632333319999999 0.7034333323333333 0.5538666646666667
 O2 O 0.703433315 0.7034333323333333 0.5538666646666667
 O2 O 0.7794666686666667 0.9632333319999999
  0.37009999899999996
 O2 O 0.7794666686666667 0.703433315 0.37009999899999996
 O2 O 0.887199998 0.9632333319999999 0.6298999986666667
 O2 O 0.887199998 0.703433315 0.6298999986666667
 O2 O 0.7794666686666667 0.9632333319999999 0.6298999986666667
 O2 O 0.7794666686666667 0.703433315 0.6298999986666667
 O2 O 0.887199998 0.9632333319999999 0.37009999899999996
 O2 O 0.887199998 0.703433315 0.37009999899999996
 O2 O 0.7034333323333333 0.7794666686666667 0.6298999986666667
 O2 O 0.7034333323333333 0.7794666686666667
  0.37009998166666663
 O2 O 0.9632333319999999 0.887199998 0.6298999986666667
 O2 O 0.9632333319999999 0.887199998 0.37009998166666663
 O2 O 0.9632333319999999 0.7794666686666667 0.6298999986666667
 O2 O 0.9632333319999999 0.7794666686666667
  0.37009998166666663
 O2 O 0.7034333323333333 0.887199998 0.6298999986666667
 O2 O 0.7034333323333333 0.887199998 0.37009998166666663
 O2 O 0.7034333323333333 0.9632333319999999 0.5538666646666667
 O2 O 0.7034333323333333 0.703433315 0.5538666646666667
 O2 O 0.9632333319999999 0.9632333319999999 0.4461333353333333
 O2 O 0.9632333319999999 0.703433315 0.4461333353333333
 O2 O 0.9632333319999999 0.9632333319999999 0.5538666646666667
 O2 O 0.9632333319999999 0.703433315 0.5538666646666667
 O2 O 0.7034333323333333 0.9632333319999999 0.4461333353333333
 O2 O 0.7034333323333333 0.703433315 0.4461333353333333
 O2 O 0.9632333319999999 0.7794666686666667 0.6298999986666667
 O2 O 0.703433315 0.7794666686666667 0.6298999986666667
 O2 O 0.9632333319999999 0.887199998 0.37009999899999996
 O2 O 0.703433315 0.887199998 0.37009999899999996
 O2 O 0.9632333319999999 0.7794666686666667
  0.37009999899999996
 O2 O 0.703433315 0.7794666686666667 0.37009999899999996
 O2 O 0.9632333319999999 0.887199998 0.6298999986666667
 O2 O 0.703433315 0.887199998 0.6298999986666667
 O2 O 0.7794666686666667 0.7034333323333333 0.6298999986666667
 O2 O 0.7794666686666667 0.7034333323333333
  0.37009998166666663
 O2 O 0.887199998 0.9632333319999999 0.6298999986666667
 O2 O 0.887199998 0.9632333319999999 0.37009998166666663
 O2 O 0.7794666686666667 0.9632333319999999 0.6298999986666667
 O2 O 0.7794666686666667 0.9632333319999999
  0.37009998166666663
 O2 O 0.887199998 0.7034333323333333 0.6298999986666667
 O2 O 0.887199998 0.7034333323333333 0.37009998166666663
 T1 Si 0.6666666666666666 0.7274333336666666
  0.45613333566666664
 T1 Si 0.6666666666666666 0.7274333336666666
  0.45613333566666664
 T1 Si 0.6666666666666666 0.9392333426666666 0.543866674
 T1 Si 0.6666666666666666 0.9392333426666666 0.543866674
 T1 Si 0.6666666666666666 0.9392333426666666
  0.45613333566666664
 T1 Si 0.6666666666666666 0.9392333426666666
  0.45613333566666664
 T1 Si 0.6666666666666666 0.7274333336666666 0.543866674
 T1 Si 0.6666666666666666 0.7274333336666666 0.543866674
 T1 Si 0.789466669 0.6666666666666666 0.3941000003333333
 T1 Si 0.789466669 0.6666666666666666 0.3941000003333333
 T1 Si 0.8772000073333333 0.6666666666666666
  0.6059000093333333
 T1 Si 0.8772000073333333 0.6666666666666666
  0.6059000093333333
 T1 Si 0.789466669 0.6666666666666666 0.6059000093333333
 T1 Si 0.789466669 0.6666666666666666 0.6059000093333333
 T1 Si 0.8772000073333333 0.6666666666666666
  0.3941000003333333
 T1 Si 0.8772000073333333 0.6666666666666666
  0.3941000003333333
 T1 Si 0.7274333336666666 0.789466669 0.3333333333333333
 T1 Si 0.7274333336666666 0.789466669 0.3333333333333333
 T1 Si 0.9392333426666666 0.8772000073333333
  0.3333333333333333
 T1 Si 0.9392333426666666 0.8772000073333333
  0.3333333333333333
 T1 Si 0.9392333426666666 0.789466669 0.3333333333333333
 T1 Si 0.9392333426666666 0.789466669 0.3333333333333333
 T1 Si 0.7274333336666666 0.8772000073333333
  0.3333333333333333
 T1 Si 0.7274333336666666 0.8772000073333333
  0.3333333333333333
 T1 Si 0.7274333336666666 0.6666666666666666 0.543866674
 T1 Si 0.7274333336666666 0.6666666666666666 0.543866674
 T1 Si 0.9392333426666666 0.6666666666666666
  0.45613333566666664
 T1 Si 0.9392333426666666 0.6666666666666666
  0.45613333566666664
 T1 Si 0.9392333426666666 0.6666666666666666 0.543866674
 T1 Si 0.9392333426666666 0.6666666666666666 0.543866674
 T1 Si 0.7274333336666666 0.6666666666666666
  0.45613333566666664
 T1 Si 0.7274333336666666 0.6666666666666666
  0.45613333566666664
 T1 Si 0.6666666666666666 0.789466669 0.6059000093333333
 T1 Si 0.6666666666666666 0.789466669 0.6059000093333333
 T1 Si 0.6666666666666666 0.8772000073333333
  0.3941000003333333
 T1 Si 0.6666666666666666 0.8772000073333333
  0.3941000003333333
 T1 Si 0.6666666666666666 0.789466669 0.3941000003333333
 T1 Si 0.6666666666666666 0.789466669 0.3941000003333333
 T1 Si 0.6666666666666666 0.8772000073333333
  0.6059000093333333
 T1 Si 0.6666666666666666 0.8772000073333333
  0.6059000093333333
 T1 Si 0.789466669 0.7274333336666666 0.3333333333333333
 T1 Si 0.789466669 0.7274333336666666 0.3333333333333333
 T1 Si 0.8772000073333333 0.9392333426666666
  0.3333333333333333
 T1 Si 0.8772000073333333 0.9392333426666666
  0.3333333333333333
 T1 Si 0.789466669 0.9392333426666666 0.3333333333333333
 T1 Si 0.789466669 0.9392333426666666 0.3333333333333333
 T1 Si 0.8772000073333333 0.7274333336666666
  0.3333333333333333
 T1 Si 0.8772000073333333 0.7274333336666666
  0.3333333333333333
 O1 O 0.0 0.07073333366666666 0.8333333333333333
 O1 O 0.0 0.07073333366666666 0.8333333333333333
 O1 O 0.0 0.26260000466666666 0.8333333333333333
 O1 O 0.0 0.26260000466666666 0.8333333333333333
 O1 O 0.16666666666666666 0.0 0.7374000003333333
 O1 O 0.16666666666666666 0.0 0.7374000003333333
 O1 O 0.16666666666666666 0.0 0.9292666713333333
 O1 O 0.16666666666666666 0.0 0.9292666713333333
 O1 O 0.07073333366666666 0.16666666666666666
  0.6666666666666666
 O1 O 0.07073333366666666 0.16666666666666666
  0.6666666666666666
 O1 O 0.26260000466666666 0.16666666666666666
  0.6666666666666666
 O1 O 0.26260000466666666 0.16666666666666666
  0.6666666666666666
 O1 O 0.07073333366666666 0.0 0.8333333333333333
 O1 O 0.07073333366666666 0.0 0.8333333333333333
 O1 O 0.26260000466666666 0.0 0.8333333333333333
 O1 O 0.26260000466666666 0.0 0.8333333333333333
 O1 O 0.0 0.16666666666666666 0.9292666713333333
 O1 O 0.0 0.16666666666666666 0.9292666713333333
 O1 O 0.0 0.16666666666666666 0.7374000003333333
 O1 O 0.0 0.16666666666666666 0.7374000003333333
 O1 O 0.16666666666666666 0.07073333366666666
  0.6666666666666666
 O1 O 0.16666666666666666 0.07073333366666666
  0.6666666666666666
 O1 O 0.16666666666666666 0.26260000466666666
  0.6666666666666666
 O1 O 0.16666666666666666 0.26260000466666666
  0.6666666666666666
 O2 O 0.03676666566666666 0.03676666566666666
  0.7794666686666667
 O2 O 0.29656666533333337 0.29656666533333337 0.887199998
 O2 O 0.29656666533333337 0.29656666533333337
  0.7794666686666667
 O2 O 0.03676666566666666 0.03676666566666666 0.887199998
 O2 O 0.29656666533333337 0.03676666566666666 0.887199998
 O2 O 0.03676666566666666 0.29656666533333337
  0.7794666686666667
 O2 O 0.03676666566666666 0.29656666533333337 0.887199998
 O2 O 0.29656666533333337 0.03676666566666666
  0.7794666686666667
 O2 O 0.112800002 0.03676666566666666 0.7034333323333333
 O2 O 0.22053333133333333 0.29656666533333337
  0.9632333319999999
 O2 O 0.112800002 0.29656666533333337 0.9632333319999999
 O2 O 0.22053333133333333 0.03676666566666666
  0.7034333323333333
 O2 O 0.22053333133333333 0.29656666533333337
  0.7034333323333333
 O2 O 0.112800002 0.03676666566666666 0.9632333319999999
 O2 O 0.22053333133333333 0.03676666566666666
  0.9632333319999999
 O2 O 0.112800002 0.29656666533333337 0.7034333323333333
 O2 O 0.03676666566666666 0.112800002 0.7034333323333333
 O2 O 0.29656666533333337 0.22053333133333333
  0.9632333319999999
 O2 O 0.29656666533333337 0.112800002 0.9632333319999999
 O2 O 0.03676666566666666 0.22053333133333333
  0.7034333323333333
 O2 O 0.03676666566666666 0.22053333133333333
  0.9632333319999999
 O2 O 0.29656666533333337 0.112800002 0.7034333323333333
 O2 O 0.29656666533333337 0.22053333133333333
  0.7034333323333333
 O2 O 0.03676666566666666 0.112800002 0.9632333319999999
 O3 O 0.0 0.09890000033333333 0.765566667
 O3 O 0.0 0.09890000033333333 0.765566667
 O3 O 0.0 0.234433333 0.9010999996666667
 O3 O 0.0 0.234433333 0.9010999996666667
 O3 O 0.0 0.234433333 0.765566667
 O3 O 0.0 0.234433333 0.765566667
 O3 O 0.0 0.09890000033333333 0.9010999996666667
 O3 O 0.0 0.09890000033333333 0.9010999996666667
 O3 O 0.09890000033333333 0.0 0.765566667
 O3 O 0.09890000033333333 0.0 0.765566667
 O3 O 0.234433333 0.0 0.9010999996666667
 O3 O 0.234433333 0.0 0.9010999996666667
 O3 O 0.09890000033333333 0.0 0.9010999996666667
 O3 O 0.09890000033333333 0.0 0.9010999996666667
 O3 O 0.234433333 0.0 0.765566667
 O3 O 0.234433333 0.0 0.765566667
 O3 O 0.09890000033333333 0.09890000033333333
  0.6666666666666666
 O3 O 0.09890000033333333 0.09890000033333333
  0.6666666666666666
 O3 O 0.234433333 0.234433333 0.6666666666666666
 O3 O 0.234433333 0.234433333 0.6666666666666666
 O3 O 0.234433333 0.09890000033333333 0.6666666666666666
 O3 O 0.234433333 0.09890000033333333 0.6666666666666666
 O3 O 0.09890000033333333 0.234433333 0.6666666666666666
 O3 O 0.09890000033333333 0.234433333 0.6666666666666666
 O2 O 0.29656666533333337 0.03676666566666666
  0.7794666686666667
 O2 O 0.03676664833333333 0.03676666566666666
  0.7794666686666667
 O2 O 0.29656666533333337 0.29656666533333337 0.887199998
 O2 O 0.03676664833333333 0.29656666533333337 0.887199998
 O2 O 0.29656666533333337 0.29656666533333337
  0.7794666686666667
 O2 O 0.03676664833333333 0.29656666533333337
  0.7794666686666667
 O2 O 0.29656666533333337 0.03676666566666666 0.887199998
 O2 O 0.03676664833333333 0.03676666566666666 0.887199998
 O2 O 0.112800002 0.29656666533333337 0.7034333323333333
 O2 O 0.112800002 0.03676664833333333 0.7034333323333333
 O2 O 0.22053333133333333 0.29656666533333337
  0.9632333319999999
 O2 O 0.22053333133333333 0.03676664833333333
  0.9632333319999999
 O2 O 0.112800002 0.29656666533333337 0.9632333319999999
 O2 O 0.112800002 0.03676664833333333 0.9632333319999999
 O2 O 0.22053333133333333 0.29656666533333337
  0.7034333323333333
 O2 O 0.22053333133333333 0.03676664833333333
  0.7034333323333333
 O2 O 0.03676666566666666 0.112800002 0.9632333319999999
 O2 O 0.03676666566666666 0.112800002 0.703433315
 O2 O 0.29656666533333337 0.22053333133333333
  0.9632333319999999
 O2 O 0.29656666533333337 0.22053333133333333 0.703433315
 O2 O 0.29656666533333337 0.112800002 0.9632333319999999
 O2 O 0.29656666533333337 0.112800002 0.703433315
 O2 O 0.03676666566666666 0.22053333133333333
  0.9632333319999999
 O2 O 0.03676666566666666 0.22053333133333333 0.703433315
 O2 O 0.03676666566666666 0.29656666533333337 0.887199998
 O2 O 0.03676666566666666 0.03676664833333333 0.887199998
 O2 O 0.29656666533333337 0.29656666533333337
  0.7794666686666667
 O2 O 0.29656666533333337 0.03676664833333333
  0.7794666686666667
 O2 O 0.29656666533333337 0.29656666533333337 0.887199998
 O2 O 0.29656666533333337 0.03676664833333333 0.887199998
 O2 O 0.03676666566666666 0.29656666533333337
  0.7794666686666667
 O2 O 0.03676666566666666 0.03676664833333333
  0.7794666686666667
 O2 O 0.29656666533333337 0.112800002 0.9632333319999999
 O2 O 0.03676664833333333 0.112800002 0.9632333319999999
 O2 O 0.29656666533333337 0.22053333133333333
  0.7034333323333333
 O2 O 0.03676664833333333 0.22053333133333333
  0.7034333323333333
 O2 O 0.29656666533333337 0.112800002 0.7034333323333333
 O2 O 0.03676664833333333 0.112800002 0.7034333323333333
 O2 O 0.29656666533333337 0.22053333133333333
  0.9632333319999999
 O2 O 0.03676664833333333 0.22053333133333333
  0.9632333319999999
 O2 O 0.112800002 0.03676666566666666 0.9632333319999999
 O2 O 0.112800002 0.03676666566666666 0.703433315
 O2 O 0.22053333133333333 0.29656666533333337
  0.9632333319999999
 O2 O 0.22053333133333333 0.29656666533333337 0.703433315
 O2 O 0.112800002 0.29656666533333337 0.9632333319999999
 O2 O 0.112800002 0.29656666533333337 0.703433315
 O2 O 0.22053333133333333 0.03676666566666666
  0.9632333319999999
 O2 O 0.22053333133333333 0.03676666566666666 0.703433315
 T1 Si 0.0 0.060766666999999996 0.789466669
 T1 Si 0.0 0.060766666999999996 0.789466669
 T1 Si 0.0 0.272566676 0.8772000073333333
 T1 Si 0.0 0.272566676 0.8772000073333333
 T1 Si 0.0 0.272566676 0.789466669
 T1 Si 0.0 0.272566676 0.789466669
 T1 Si 0.0 0.060766666999999996 0.8772000073333333
 T1 Si 0.0 0.060766666999999996 0.8772000073333333
 T1 Si 0.12280000233333332 0.0 0.7274333336666666
 T1 Si 0.12280000233333332 0.0 0.7274333336666666
 T1 Si 0.21053334066666665 0.0 0.9392333426666666
 T1 Si 0.21053334066666665 0.0 0.9392333426666666
 T1 Si 0.12280000233333332 0.0 0.9392333426666666
 T1 Si 0.12280000233333332 0.0 0.9392333426666666
 T1 Si 0.21053334066666665 0.0 0.7274333336666666
 T1 Si 0.21053334066666665 0.0 0.7274333336666666
 T1 Si 0.060766666999999996 0.12280000233333332
  0.6666666666666666
 T1 Si 0.060766666999999996 0.12280000233333332
  0.6666666666666666
 T1 Si 0.272566676 0.21053334066666665 0.6666666666666666
 T1 Si 0.272566676 0.21053334066666665 0.6666666666666666
 T1 Si 0.272566676 0.12280000233333332 0.6666666666666666
 T1 Si 0.272566676 0.12280000233333332 0.6666666666666666
 T1 Si 0.060766666999999996 0.21053334066666665
  0.6666666666666666
 T1 Si 0.060766666999999996 0.21053334066666665
  0.6666666666666666
 T1 Si 0.060766666999999996 0.0 0.8772000073333333
 T1 Si 0.060766666999999996 0.0 0.8772000073333333
 T1 Si 0.272566676 0.0 0.789466669
 T1 Si 0.272566676 0.0 0.789466669
 T1 Si 0.272566676 0.0 0.8772000073333333
 T1 Si 0.272566676 0.0 0.8772000073333333
 T1 Si 0.060766666999999996 0.0 0.789466669
 T1 Si 0.060766666999999996 0.0 0.789466669
 T1 Si 0.0 0.12280000233333332 0.9392333426666666
 T1 Si 0.0 0.12280000233333332 0.9392333426666666
 T1 Si 0.0 0.21053334066666665 0.7274333336666666
 T1 Si 0.0 0.21053334066666665 0.7274333336666666
 T1 Si 0.0 0.12280000233333332 0.7274333336666666
 T1 Si 0.0 0.12280000233333332 0.7274333336666666
 T1 Si 0.0 0.21053334066666665 0.9392333426666666
 T1 Si 0.0 0.21053334066666665 0.9392333426666666
 T1 Si 0.12280000233333332 0.060766666999999996
  0.6666666666666666
 T1 Si 0.12280000233333332 0.060766666999999996
  0.6666666666666666
 T1 Si 0.21053334066666665 0.272566676 0.6666666666666666
 T1 Si 0.21053334066666665 0.272566676 0.6666666666666666
 T1 Si 0.12280000233333332 0.272566676 0.6666666666666666
 T1 Si 0.12280000233333332 0.272566676 0.6666666666666666
 T1 Si 0.21053334066666665 0.060766666999999996
  0.6666666666666666
 T1 Si 0.21053334066666665 0.060766666999999996
  0.6666666666666666
 O1 O 0.3333333333333333 0.07073333366666666
  0.8333333333333333
 O1 O 0.3333333333333333 0.07073333366666666
  0.8333333333333333
 O1 O 0.3333333333333333 0.26260000466666666
  0.8333333333333333
 O1 O 0.3333333333333333 0.26260000466666666
  0.8333333333333333
 O1 O 0.5 0.0 0.7374000003333333
 O1 O 0.5 0.0 0.7374000003333333
 O1 O 0.5 0.0 0.9292666713333333
 O1 O 0.5 0.0 0.9292666713333333
 O1 O 0.404066667 0.16666666666666666 0.6666666666666666
 O1 O 0.404066667 0.16666666666666666 0.6666666666666666
 O1 O 0.595933338 0.16666666666666666 0.6666666666666666
 O1 O 0.595933338 0.16666666666666666 0.6666666666666666
 O1 O 0.404066667 0.0 0.8333333333333333
 O1 O 0.404066667 0.0 0.8333333333333333
 O1 O 0.595933338 0.0 0.8333333333333333
 O1 O 0.595933338 0.0 0.8333333333333333
 O1 O 0.3333333333333333 0.16666666666666666
  0.9292666713333333
 O1 O 0.3333333333333333 0.16666666666666666
  0.9292666713333333
 O1 O 0.3333333333333333 0.16666666666666666
  0.7374000003333333
 O1 O 0.3333333333333333 0.16666666666666666
  0.7374000003333333
 O1 O 0.5 0.07073333366666666 0.6666666666666666
 O1 O 0.5 0.07073333366666666 0.6666666666666666
 O1 O 0.5 0.26260000466666666 0.6666666666666666
 O1 O 0.5 0.26260000466666666 0.6666666666666666
 O2 O 0.37009999899999996 0.03676666566666666
  0.7794666686666667
 O2 O 0.6298999986666667 0.29656666533333337 0.887199998
 O2 O 0.6298999986666667 0.29656666533333337
  0.7794666686666667
 O2 O 0.37009999899999996 0.03676666566666666 0.887199998
 O2 O 0.6298999986666667 0.03676666566666666 0.887199998
 O2 O 0.37009999899999996 0.29656666533333337
  0.7794666686666667
 O2 O 0.37009999899999996 0.29656666533333337 0.887199998
 O2 O 0.6298999986666667 0.03676666566666666
  0.7794666686666667
 O2 O 0.4461333353333333 0.03676666566666666
  0.7034333323333333
 O2 O 0.5538666646666667 0.29656666533333337
  0.9632333319999999
 O2 O 0.4461333353333333 0.29656666533333337
  0.9632333319999999
 O2 O 0.5538666646666667 0.03676666566666666
  0.7034333323333333
 O2 O 0.5538666646666667 0.29656666533333337
  0.7034333323333333
 O2 O 0.4461333353333333 0.03676666566666666
  0.9632333319999999
 O2 O 0.5538666646666667 0.03676666566666666
  0.9632333319999999
 O2 O 0.4461333353333333 0.29656666533333337
  0.7034333323333333
 O2 O 0.37009999899999996 0.112800002 0.7034333323333333
 O2 O 0.6298999986666667 0.22053333133333333
  0.9632333319999999
 O2 O 0.6298999986666667 0.112800002 0.9632333319999999
 O2 O 0.37009999899999996 0.22053333133333333
  0.7034333323333333
 O2 O 0.37009999899999996 0.22053333133333333
  0.9632333319999999
 O2 O 0.6298999986666667 0.112800002 0.7034333323333333
 O2 O 0.6298999986666667 0.22053333133333333
  0.7034333323333333
 O2 O 0.37009999899999996 0.112800002 0.9632333319999999
 O3 O 0.3333333333333333 0.09890000033333333 0.765566667
 O3 O 0.3333333333333333 0.09890000033333333 0.765566667
 O3 O 0.3333333333333333 0.234433333 0.9010999996666667
 O3 O 0.3333333333333333 0.234433333 0.9010999996666667
 O3 O 0.3333333333333333 0.234433333 0.765566667
 O3 O 0.3333333333333333 0.234433333 0.765566667
 O3 O 0.3333333333333333 0.09890000033333333
  0.9010999996666667
 O3 O 0.3333333333333333 0.09890000033333333
  0.9010999996666667
 O3 O 0.43223333366666666 0.0 0.765566667
 O3 O 0.43223333366666666 0.0 0.765566667
 O3 O 0.5677666663333333 0.0 0.9010999996666667
 O3 O 0.5677666663333333 0.0 0.9010999996666667
 O3 O 0.43223333366666666 0.0 0.9010999996666667
 O3 O 0.43223333366666666 0.0 0.9010999996666667
 O3 O 0.5677666663333333 0.0 0.765566667
 O3 O 0.5677666663333333 0.0 0.765566667
 O3 O 0.43223333366666666 0.09890000033333333
  0.6666666666666666
 O3 O 0.43223333366666666 0.09890000033333333
  0.6666666666666666
 O3 O 0.5677666663333333 0.234433333 0.6666666666666666
 O3 O 0.5677666663333333 0.234433333 0.6666666666666666
 O3 O 0.5677666663333333 0.09890000033333333
  0.6666666666666666
 O3 O 0.5677666663333333 0.09890000033333333
  0.6666666666666666
 O3 O 0.43223333366666666 0.234433333 0.6666666666666666
 O3 O 0.43223333366666666 0.234433333 0.6666666666666666
 O2 O 0.6298999986666667 0.03676666566666666
  0.7794666686666667
 O2 O 0.37009998166666663 0.03676666566666666
  0.7794666686666667
 O2 O 0.6298999986666667 0.29656666533333337 0.887199998
 O2 O 0.37009998166666663 0.29656666533333337 0.887199998
 O2 O 0.6298999986666667 0.29656666533333337
  0.7794666686666667
 O2 O 0.37009998166666663 0.29656666533333337
  0.7794666686666667
 O2 O 0.6298999986666667 0.03676666566666666 0.887199998
 O2 O 0.37009998166666663 0.03676666566666666 0.887199998
 O2 O 0.4461333353333333 0.29656666533333337
  0.7034333323333333
 O2 O 0.4461333353333333 0.03676664833333333
  0.7034333323333333
 O2 O 0.5538666646666667 0.29656666533333337
  0.9632333319999999
 O2 O 0.5538666646666667 0.03676664833333333
  0.9632333319999999
 O2 O 0.4461333353333333 0.29656666533333337
  0.9632333319999999
 O2 O 0.4461333353333333 0.03676664833333333
  0.9632333319999999
 O2 O 0.5538666646666667 0.29656666533333337
  0.7034333323333333
 O2 O 0.5538666646666667 0.03676664833333333
  0.7034333323333333
 O2 O 0.37009999899999996 0.112800002 0.9632333319999999
 O2 O 0.37009999899999996 0.112800002 0.703433315
 O2 O 0.6298999986666667 0.22053333133333333
  0.9632333319999999
 O2 O 0.6298999986666667 0.22053333133333333 0.703433315
 O2 O 0.6298999986666667 0.112800002 0.9632333319999999
 O2 O 0.6298999986666667 0.112800002 0.703433315
 O2 O 0.37009999899999996 0.22053333133333333
  0.9632333319999999
 O2 O 0.37009999899999996 0.22053333133333333 0.703433315
 O2 O 0.37009999899999996 0.29656666533333337 0.887199998
 O2 O 0.37009999899999996 0.03676664833333333 0.887199998
 O2 O 0.6298999986666667 0.29656666533333337
  0.7794666686666667
 O2 O 0.6298999986666667 0.03676664833333333
  0.7794666686666667
 O2 O 0.6298999986666667 0.29656666533333337 0.887199998
 O2 O 0.6298999986666667 0.03676664833333333 0.887199998
 O2 O 0.37009999899999996 0.29656666533333337
  0.7794666686666667
 O2 O 0.37009999899999996 0.03676664833333333
  0.7794666686666667
 O2 O 0.6298999986666667 0.112800002 0.9632333319999999
 O2 O 0.37009998166666663 0.112800002 0.9632333319999999
 O2 O 0.6298999986666667 0.22053333133333333
  0.7034333323333333
 O2 O 0.37009998166666663 0.22053333133333333
  0.7034333323333333
 O2 O 0.6298999986666667 0.112800002 0.7034333323333333
 O2 O 0.37009998166666663 0.112800002 0.7034333323333333
 O2 O 0.6298999986666667 0.22053333133333333
  0.9632333319999999
 O2 O 0.37009998166666663 0.22053333133333333
  0.9632333319999999
 O2 O 0.4461333353333333 0.03676666566666666
  0.9632333319999999
 O2 O 0.4461333353333333 0.03676666566666666 0.703433315
 O2 O 0.5538666646666667 0.29656666533333337
  0.9632333319999999
 O2 O 0.5538666646666667 0.29656666533333337 0.703433315
 O2 O 0.4461333353333333 0.29656666533333337
  0.9632333319999999
 O2 O 0.4461333353333333 0.29656666533333337 0.703433315
 O2 O 0.5538666646666667 0.03676666566666666
  0.9632333319999999
 O2 O 0.5538666646666667 0.03676666566666666 0.703433315
 T1 Si 0.3333333333333333 0.060766666999999996 0.789466669
 T1 Si 0.3333333333333333 0.060766666999999996 0.789466669
 T1 Si 0.3333333333333333 0.272566676 0.8772000073333333
 T1 Si 0.3333333333333333 0.272566676 0.8772000073333333
 T1 Si 0.3333333333333333 0.272566676 0.789466669
 T1 Si 0.3333333333333333 0.272566676 0.789466669
 T1 Si 0.3333333333333333 0.060766666999999996
  0.8772000073333333
 T1 Si 0.3333333333333333 0.060766666999999996
  0.8772000073333333
 T1 Si 0.45613333566666664 0.0 0.7274333336666666
 T1 Si 0.45613333566666664 0.0 0.7274333336666666
 T1 Si 0.543866674 0.0 0.9392333426666666
 T1 Si 0.543866674 0.0 0.9392333426666666
 T1 Si 0.45613333566666664 0.0 0.9392333426666666
 T1 Si 0.45613333566666664 0.0 0.9392333426666666
 T1 Si 0.543866674 0.0 0.7274333336666666
 T1 Si 0.543866674 0.0 0.7274333336666666
 T1 Si 0.3941000003333333 0.12280000233333332
  0.6666666666666666
 T1 Si 0.3941000003333333 0.12280000233333332
  0.6666666666666666
 T1 Si 0.6059000093333333 0.21053334066666665
  0.6666666666666666
 T1 Si 0.6059000093333333 0.21053334066666665
  0.6666666666666666
 T1 Si 0.6059000093333333 0.12280000233333332
  0.6666666666666666
 T1 Si 0.6059000093333333 0.12280000233333332
  0.6666666666666666
 T1 Si 0.3941000003333333 0.21053334066666665
  0.6666666666666666
 T1 Si 0.3941000003333333 0.21053334066666665
  0.6666666666666666
 T1 Si 0.3941000003333333 0.0 0.8772000073333333
 T1 Si 0.3941000003333333 0.0 0.8772000073333333
 T1 Si 0.6059000093333333 0.0 0.789466669
 T1 Si 0.6059000093333333 0.0 0.789466669
 T1 Si 0.6059000093333333 0.0 0.8772000073333333
 T1 Si 0.6059000093333333 0.0 0.8772000073333333
 T1 Si 0.3941000003333333 0.0 0.789466669
 T1 Si 0.3941000003333333 0.0 0.789466669
 T1 Si 0.3333333333333333 0.12280000233333332
  0.9392333426666666
 T1 Si 0.3333333333333333 0.12280000233333332
  0.9392333426666666
 T1 Si 0.3333333333333333 0.21053334066666665
  0.7274333336666666
 T1 Si 0.3333333333333333 0.21053334066666665
  0.7274333336666666
 T1 Si 0.3333333333333333 0.12280000233333332
  0.7274333336666666
 T1 Si 0.3333333333333333 0.12280000233333332
  0.7274333336666666
 T1 Si 0.3333333333333333 0.21053334066666665
  0.9392333426666666
 T1 Si 0.3333333333333333 0.21053334066666665
  0.9392333426666666
 T1 Si 0.45613333566666664 0.060766666999999996
  0.6666666666666666
 T1 Si 0.45613333566666664 0.060766666999999996
  0.6666666666666666
 T1 Si 0.543866674 0.272566676 0.6666666666666666
 T1 Si 0.543866674 0.272566676 0.6666666666666666
 T1 Si 0.45613333566666664 0.272566676 0.6666666666666666
 T1 Si 0.45613333566666664 0.272566676 0.6666666666666666
 T1 Si 0.543866674 0.060766666999999996 0.6666666666666666
 T1 Si 0.543866674 0.060766666999999996 0.6666666666666666
 O1 O 0.6666666666666666 0.07073333366666666
  0.8333333333333333
 O1 O 0.6666666666666666 0.07073333366666666
  0.8333333333333333
 O1 O 0.6666666666666666 0.26260000466666666
  0.8333333333333333
 O1 O 0.6666666666666666 0.26260000466666666
  0.8333333333333333
 O1 O 0.8333333333333333 0.0 0.7374000003333333
 O1 O 0.8333333333333333 0.0 0.7374000003333333
 O1 O 0.8333333333333333 0.0 0.9292666713333333
 O1 O 0.8333333333333333 0.0 0.9292666713333333
 O1 O 0.7374000003333333 0.16666666666666666
  0.6666666666666666
 O1 O 0.7374000003333333 0.16666666666666666
  0.6666666666666666
 O1 O 0.9292666713333333 0.16666666666666666
  0.6666666666666666
 O1 O 0.9292666713333333 0.16666666666666666
  0.6666666666666666
 O1 O 0.7374000003333333 0.0 0.8333333333333333
 O1 O 0.7374000003333333 0.0 0.8333333333333333
 O1 O 0.9292666713333333 0.0 0.8333333333333333
 O1 O 0.9292666713333333 0.0 0.8333333333333333
 O1 O 0.6666666666666666 0.16666666666666666
  0.9292666713333333
 O1 O 0.6666666666666666 0.16666666666666666
  0.9292666713333333
 O1 O 0.6666666666666666 0.16666666666666666
  0.7374000003333333
 O1 O 0.6666666666666666 0.16666666666666666
  0.7374000003333333
 O1 O 0.8333333333333333 0.07073333366666666
  0.6666666666666666
 O1 O 0.8333333333333333 0.07073333366666666
  0.6666666666666666
 O1 O 0.8333333333333333 0.26260000466666666
  0.6666666666666666
 O1 O 0.8333333333333333 0.26260000466666666
  0.6666666666666666
 O2 O 0.7034333323333333 0.03676666566666666
  0.7794666686666667
 O2 O 0.9632333319999999 0.29656666533333337 0.887199998
 O2 O 0.9632333319999999 0.29656666533333337
  0.7794666686666667
 O2 O 0.7034333323333333 0.03676666566666666 0.887199998
 O2 O 0.9632333319999999 0.03676666566666666 0.887199998
 O2 O 0.7034333323333333 0.29656666533333337
  0.7794666686666667
 O2 O 0.7034333323333333 0.29656666533333337 0.887199998
 O2 O 0.9632333319999999 0.03676666566666666
  0.7794666686666667
 O2 O 0.7794666686666667 0.03676666566666666
  0.7034333323333333
 O2 O 0.887199998 0.29656666533333337 0.9632333319999999
 O2 O 0.7794666686666667 0.29656666533333337
  0.9632333319999999
 O2 O 0.887199998 0.03676666566666666 0.7034333323333333
 O2 O 0.887199998 0.29656666533333337 0.7034333323333333
 O2 O 0.7794666686666667 0.03676666566666666
  0.9632333319999999
 O2 O 0.887199998 0.03676666566666666 0.9632333319999999
 O2 O 0.7794666686666667 0.29656666533333337
  0.7034333323333333
 O2 O 0.7034333323333333 0.112800002 0.7034333323333333
 O2 O 0.9632333319999999 0.22053333133333333
  0.9632333319999999
 O2 O 0.9632333319999999 0.112800002 0.9632333319999999
 O2 O 0.7034333323333333 0.22053333133333333
  0.7034333323333333
 O2 O 0.7034333323333333 0.22053333133333333
  0.9632333319999999
 O2 O 0.9632333319999999 0.112800002 0.7034333323333333
 O2 O 0.9632333319999999 0.22053333133333333
  0.7034333323333333
 O2 O 0.7034333323333333 0.112800002 0.9632333319999999
 O3 O 0.6666666666666666 0.09890000033333333 0.765566667
 O3 O 0.6666666666666666 0.09890000033333333 0.765566667
 O3 O 0.6666666666666666 0.234433333 0.9010999996666667
 O3 O 0.6666666666666666 0.234433333 0.9010999996666667
 O3 O 0.6666666666666666 0.234433333 0.765566667
 O3 O 0.6666666666666666 0.234433333 0.765566667
 O3 O 0.6666666666666666 0.09890000033333333
  0.9010999996666667
 O3 O 0.6666666666666666 0.09890000033333333
  0.9010999996666667
 O3 O 0.765566667 0.0 0.765566667
 O3 O 0.765566667 0.0 0.765566667
 O3 O 0.9010999996666667 0.0 0.9010999996666667
 O3 O 0.9010999996666667 0.0 0.9010999996666667
 O3 O 0.765566667 0.0 0.9010999996666667
 O3 O 0.765566667 0.0 0.9010999996666667
 O3 O 0.9010999996666667 0.0 0.765566667
 O3 O 0.9010999996666667 0.0 0.765566667
 O3 O 0.765566667 0.09890000033333333 0.6666666666666666
 O3 O 0.765566667 0.09890000033333333 0.6666666666666666
 O3 O 0.9010999996666667 0.234433333 0.6666666666666666
 O3 O 0.9010999996666667 0.234433333 0.6666666666666666
 O3 O 0.9010999996666667 0.09890000033333333
  0.6666666666666666
 O3 O 0.9010999996666667 0.09890000033333333
  0.6666666666666666
 O3 O 0.765566667 0.234433333 0.6666666666666666
 O3 O 0.765566667 0.234433333 0.6666666666666666
 O2 O 0.9632333319999999 0.03676666566666666
  0.7794666686666667
 O2 O 0.703433315 0.03676666566666666 0.7794666686666667
 O2 O 0.9632333319999999 0.29656666533333337 0.887199998
 O2 O 0.703433315 0.29656666533333337 0.887199998
 O2 O 0.9632333319999999 0.29656666533333337
  0.7794666686666667
 O2 O 0.703433315 0.29656666533333337 0.7794666686666667
 O2 O 0.9632333319999999 0.03676666566666666 0.887199998
 O2 O 0.703433315 0.03676666566666666 0.887199998
 O2 O 0.7794666686666667 0.29656666533333337
  0.7034333323333333
 O2 O 0.7794666686666667 0.03676664833333333
  0.7034333323333333
 O2 O 0.887199998 0.29656666533333337 0.9632333319999999
 O2 O 0.887199998 0.03676664833333333 0.9632333319999999
 O2 O 0.7794666686666667 0.29656666533333337
  0.9632333319999999
 O2 O 0.7794666686666667 0.03676664833333333
  0.9632333319999999
 O2 O 0.887199998 0.29656666533333337 0.7034333323333333
 O2 O 0.887199998 0.03676664833333333 0.7034333323333333
 O2 O 0.7034333323333333 0.112800002 0.9632333319999999
 O2 O 0.7034333323333333 0.112800002 0.703433315
 O2 O 0.9632333319999999 0.22053333133333333
  0.9632333319999999
 O2 O 0.9632333319999999 0.22053333133333333 0.703433315
 O2 O 0.9632333319999999 0.112800002 0.9632333319999999
 O2 O 0.9632333319999999 0.112800002 0.703433315
 O2 O 0.7034333323333333 0.22053333133333333
  0.9632333319999999
 O2 O 0.7034333323333333 0.22053333133333333 0.703433315
 O2 O 0.7034333323333333 0.29656666533333337 0.887199998
 O2 O 0.7034333323333333 0.03676664833333333 0.887199998
 O2 O 0.9632333319999999 0.29656666533333337
  0.7794666686666667
 O2 O 0.9632333319999999 0.03676664833333333
  0.7794666686666667
 O2 O 0.9632333319999999 0.29656666533333337 0.887199998
 O2 O 0.9632333319999999 0.03676664833333333 0.887199998
 O2 O 0.7034333323333333 0.29656666533333337
  0.7794666686666667
 O2 O 0.7034333323333333 0.03676664833333333
  0.7794666686666667
 O2 O 0.9632333319999999 0.112800002 0.9632333319999999
 O2 O 0.703433315 0.112800002 0.9632333319999999
 O2 O 0.9632333319999999 0.22053333133333333
  0.7034333323333333
 O2 O 0.703433315 0.22053333133333333 0.7034333323333333
 O2 O 0.9632333319999999 0.112800002 0.7034333323333333
 O2 O 0.703433315 0.112800002 0.7034333323333333
 O2 O 0.9632333319999999 0.22053333133333333
  0.9632333319999999
 O2 O 0.703433315 0.22053333133333333 0.9632333319999999
 O2 O 0.7794666686666667 0.03676666566666666
  0.9632333319999999
 O2 O 0.7794666686666667 0.03676666566666666 0.703433315
 O2 O 0.887199998 0.29656666533333337 0.9632333319999999
 O2 O 0.887199998 0.29656666533333337 0.703433315
 O2 O 0.7794666686666667 0.29656666533333337
  0.9632333319999999
 O2 O 0.7794666686666667 0.29656666533333337 0.703433315
 O2 O 0.887199998 0.03676666566666666 0.9632333319999999
 O2 O 0.887199998 0.03676666566666666 0.703433315
 T1 Si 0.6666666666666666 0.060766666999999996 0.789466669
 T1 Si 0.6666666666666666 0.060766666999999996 0.789466669
 T1 Si 0.6666666666666666 0.272566676 0.8772000073333333
 T1 Si 0.6666666666666666 0.272566676 0.8772000073333333
 T1 Si 0.6666666666666666 0.272566676 0.789466669
 T1 Si 0.6666666666666666 0.272566676 0.789466669
 T1 Si 0.6666666666666666 0.060766666999999996
  0.8772000073333333
 T1 Si 0.6666666666666666 0.060766666999999996
  0.8772000073333333
 T1 Si 0.789466669 0.0 0.7274333336666666
 T1 Si 0.789466669 0.0 0.7274333336666666
 T1 Si 0.8772000073333333 0.0 0.9392333426666666
 T1 Si 0.8772000073333333 0.0 0.9392333426666666
 T1 Si 0.789466669 0.0 0.9392333426666666
 T1 Si 0.789466669 0.0 0.9392333426666666
 T1 Si 0.8772000073333333 0.0 0.7274333336666666
 T1 Si 0.8772000073333333 0.0 0.7274333336666666
 T1 Si 0.7274333336666666 0.12280000233333332
  0.6666666666666666
 T1 Si 0.7274333336666666 0.12280000233333332
  0.6666666666666666
 T1 Si 0.9392333426666666 0.21053334066666665
  0.6666666666666666
 T1 Si 0.9392333426666666 0.21053334066666665
  0.6666666666666666
 T1 Si 0.9392333426666666 0.12280000233333332
  0.6666666666666666
 T1 Si 0.9392333426666666 0.12280000233333332
  0.6666666666666666
 T1 Si 0.7274333336666666 0.21053334066666665
  0.6666666666666666
 T1 Si 0.7274333336666666 0.21053334066666665
  0.6666666666666666
 T1 Si 0.7274333336666666 0.0 0.8772000073333333
 T1 Si 0.7274333336666666 0.0 0.8772000073333333
 T1 Si 0.9392333426666666 0.0 0.789466669
 T1 Si 0.9392333426666666 0.0 0.789466669
 T1 Si 0.9392333426666666 0.0 0.8772000073333333
 T1 Si 0.9392333426666666 0.0 0.8772000073333333
 T1 Si 0.7274333336666666 0.0 0.789466669
 T1 Si 0.7274333336666666 0.0 0.789466669
 T1 Si 0.6666666666666666 0.12280000233333332
  0.9392333426666666
 T1 Si 0.6666666666666666 0.12280000233333332
  0.9392333426666666
 T1 Si 0.6666666666666666 0.21053334066666665
  0.7274333336666666
 T1 Si 0.6666666666666666 0.21053334066666665
  0.7274333336666666
 T1 Si 0.6666666666666666 0.12280000233333332
  0.7274333336666666
 T1 Si 0.6666666666666666 0.12280000233333332
  0.7274333336666666
 T1 Si 0.6666666666666666 0.21053334066666665
  0.9392333426666666
 T1 Si 0.6666666666666666 0.21053334066666665
  0.9392333426666666
 T1 Si 0.789466669 0.060766666999999996 0.6666666666666666
 T1 Si 0.789466669 0.060766666999999996 0.6666666666666666
 T1 Si 0.8772000073333333 0.272566676 0.6666666666666666
 T1 Si 0.8772000073333333 0.272566676 0.6666666666666666
 T1 Si 0.789466669 0.272566676 0.6666666666666666
 T1 Si 0.789466669 0.272566676 0.6666666666666666
 T1 Si 0.8772000073333333 0.060766666999999996
  0.6666666666666666
 T1 Si 0.8772000073333333 0.060766666999999996
  0.6666666666666666
 O1 O 0.0 0.404066667 0.8333333333333333
 O1 O 0.0 0.404066667 0.8333333333333333
 O1 O 0.0 0.595933338 0.8333333333333333
 O1 O 0.0 0.595933338 0.8333333333333333
 O1 O 0.16666666666666666 0.3333333333333333
  0.7374000003333333
 O1 O 0.16666666666666666 0.3333333333333333
  0.7374000003333333
 O1 O 0.16666666666666666 0.3333333333333333
  0.9292666713333333
 O1 O 0.16666666666666666 0.3333333333333333
  0.9292666713333333
 O1 O 0.07073333366666666 0.5 0.6666666666666666
 O1 O 0.07073333366666666 0.5 0.6666666666666666
 O1 O 0.26260000466666666 0.5 0.6666666666666666
 O1 O 0.26260000466666666 0.5 0.6666666666666666
 O1 O 0.07073333366666666 0.3333333333333333
  0.8333333333333333
 O1 O 0.07073333366666666 0.3333333333333333
  0.8333333333333333
 O1 O 0.26260000466666666 0.3333333333333333
  0.8333333333333333
 O1 O 0.26260000466666666 0.3333333333333333
  0.8333333333333333
 O1 O 0.0 0.5 0.9292666713333333
 O1 O 0.0 0.5 0.9292666713333333
 O1 O 0.0 0.5 0.7374000003333333
 O1 O 0.0 0.5 0.7374000003333333
 O1 O 0.16666666666666666 0.404066667 0.6666666666666666
 O1 O 0.16666666666666666 0.404066667 0.6666666666666666
 O1 O 0.16666666666666666 0.595933338 0.6666666666666666
 O1 O 0.16666666666666666 0.595933338 0.6666666666666666
 O2 O 0.03676666566666666 0.37009999899999996
  0.7794666686666667
 O2 O 0.29656666533333337 0.6298999986666667 0.887199998
 O2 O 0.29656666533333337 0.6298999986666667
  0.7794666686666667
 O2 O 0.03676666566666666 0.37009999899999996 0.887199998
 O2 O 0.29656666533333337 0.37009999899999996 0.887199998
 O2 O 0.03676666566666666 0.6298999986666667
  0.7794666686666667
 O2 O 0.03676666566666666 0.6298999986666667 0.887199998
 O2 O 0.29656666533333337 0.37009999899999996
  0.7794666686666667
 O2 O 0.112800002 0.37009999899999996 0.7034333323333333
 O2 O 0.22053333133333333 0.6298999986666667
  0.9632333319999999
 O2 O 0.112800002 0.6298999986666667 0.9632333319999999
 O2 O 0.22053333133333333 0.37009999899999996
  0.7034333323333333
 O2 O 0.22053333133333333 0.6298999986666667
  0.7034333323333333
 O2 O 0.112800002 0.37009999899999996 0.9632333319999999
 O2 O 0.22053333133333333 0.37009999899999996
  0.9632333319999999
 O2 O 0.112800002 0.6298999986666667 0.7034333323333333
 O2 O 0.03676666566666666 0.4461333353333333
  0.7034333323333333
 O2 O 0.29656666533333337 0.5538666646666667
  0.9632333319999999
 O2 O 0.29656666533333337 0.4461333353333333
  0.9632333319999999
 O2 O 0.03676666566666666 0.5538666646666667
  0.7034333323333333
 O2 O 0.03676666566666666 0.5538666646666667
  0.9632333319999999
 O2 O 0.29656666533333337 0.4461333353333333
  0.7034333323333333
 O2 O 0.29656666533333337 0.5538666646666667
  0.7034333323333333
 O2 O 0.03676666566666666 0.4461333353333333
  0.9632333319999999
 O3 O 0.0 0.43223333366666666 0.765566667
 O3 O 0.0 0.43223333366666666 0.765566667
 O3 O 0.0 0.5677666663333333 0.9010999996666667
 O3 O 0.0 0.5677666663333333 0.9010999996666667
 O3 O 0.0 0.5677666663333333 0.765566667
 O3 O 0.0 0.5677666663333333 0.765566667
 O3 O 0.0 0.43223333366666666 0.9010999996666667
 O3 O 0.0 0.43223333366666666 0.9010999996666667
 O3 O 0.09890000033333333 0.3333333333333333 0.765566667
 O3 O 0.09890000033333333 0.3333333333333333 0.765566667
 O3 O 0.234433333 0.3333333333333333 0.9010999996666667
 O3 O 0.234433333 0.3333333333333333 0.9010999996666667
 O3 O 0.09890000033333333 0.3333333333333333
  0.9010999996666667
 O3 O 0.09890000033333333 0.3333333333333333
  0.9010999996666667
 O3 O 0.234433333 0.3333333333333333 0.765566667
 O3 O 0.234433333 0.3333333333333333 0.765566667
 O3 O 0.09890000033333333 0.43223333366666666
  0.6666666666666666
 O3 O 0.09890000033333333 0.43223333366666666
  0.6666666666666666
 O3 O 0.234433333 0.5677666663333333 0.6666666666666666
 O3 O 0.234433333 0.5677666663333333 0.6666666666666666
 O3 O 0.234433333 0.43223333366666666 0.6666666666666666
 O3 O 0.234433333 0.43223333366666666 0.6666666666666666
 O3 O 0.09890000033333333 0.5677666663333333
  0.6666666666666666
 O3 O 0.09890000033333333 0.5677666663333333
  0.6666666666666666
 O2 O 0.29656666533333337 0.37009999899999996
  0.7794666686666667
 O2 O 0.03676664833333333 0.37009999899999996
  0.7794666686666667
 O2 O 0.29656666533333337 0.6298999986666667 0.887199998
 O2 O 0.03676664833333333 0.6298999986666667 0.887199998
 O2 O 0.29656666533333337 0.6298999986666667
  0.7794666686666667
 O2 O 0.03676664833333333 0.6298999986666667
  0.7794666686666667
 O2 O 0.29656666533333337 0.37009999899999996 0.887199998
 O2 O 0.03676664833333333 0.37009999899999996 0.887199998
 O2 O 0.112800002 0.6298999986666667 0.7034333323333333
 O2 O 0.112800002 0.37009998166666663 0.7034333323333333
 O2 O 0.22053333133333333 0.6298999986666667
  0.9632333319999999
 O2 O 0.22053333133333333 0.37009998166666663
  0.9632333319999999
 O2 O 0.112800002 0.6298999986666667 0.9632333319999999
 O2 O 0.112800002 0.37009998166666663 0.9632333319999999
 O2 O 0.22053333133333333 0.6298999986666667
  0.7034333323333333
 O2 O 0.22053333133333333 0.37009998166666663
  0.7034333323333333
 O2 O 0.03676666566666666 0.4461333353333333
  0.9632333319999999
 O2 O 0.03676666566666666 0.4461333353333333 0.703433315
 O2 O 0.29656666533333337 0.5538666646666667
  0.9632333319999999
 O2 O 0.29656666533333337 0.5538666646666667 0.703433315
 O2 O 0.29656666533333337 0.4461333353333333
  0.9632333319999999
 O2 O 0.29656666533333337 0.4461333353333333 0.703433315
 O2 O 0.03676666566666666 0.5538666646666667
  0.9632333319999999
 O2 O 0.03676666566666666 0.5538666646666667 0.703433315
 O2 O 0.03676666566666666 0.6298999986666667 0.887199998
 O2 O 0.03676666566666666 0.37009998166666663 0.887199998
 O2 O 0.29656666533333337 0.6298999986666667
  0.7794666686666667
 O2 O 0.29656666533333337 0.37009998166666663
  0.7794666686666667
 O2 O 0.29656666533333337 0.6298999986666667 0.887199998
 O2 O 0.29656666533333337 0.37009998166666663 0.887199998
 O2 O 0.03676666566666666 0.6298999986666667
  0.7794666686666667
 O2 O 0.03676666566666666 0.37009998166666663
  0.7794666686666667
 O2 O 0.29656666533333337 0.4461333353333333
  0.9632333319999999
 O2 O 0.03676664833333333 0.4461333353333333
  0.9632333319999999
 O2 O 0.29656666533333337 0.5538666646666667
  0.7034333323333333
 O2 O 0.03676664833333333 0.5538666646666667
  0.7034333323333333
 O2 O 0.29656666533333337 0.4461333353333333
  0.7034333323333333
 O2 O 0.03676664833333333 0.4461333353333333
  0.7034333323333333
 O2 O 0.29656666533333337 0.5538666646666667
  0.9632333319999999
 O2 O 0.03676664833333333 0.5538666646666667
  0.9632333319999999
 O2 O 0.112800002 0.37009999899999996 0.9632333319999999
 O2 O 0.112800002 0.37009999899999996 0.703433315
 O2 O 0.22053333133333333 0.6298999986666667
  0.9632333319999999
 O2 O 0.22053333133333333 0.6298999986666667 0.703433315
 O2 O 0.112800002 0.6298999986666667 0.9632333319999999
 O2 O 0.112800002 0.6298999986666667 0.703433315
 O2 O 0.22053333133333333 0.37009999899999996
  0.9632333319999999
 O2 O 0.22053333133333333 0.37009999899999996 0.703433315
 T1 Si 0.0 0.3941000003333333 0.789466669
 T1 Si 0.0 0.3941000003333333 0.789466669
 T1 Si 0.0 0.6059000093333333 0.8772000073333333
 T1 Si 0.0 0.6059000093333333 0.8772000073333333
 T1 Si 0.0 0.6059000093333333 0.789466669
 T1 Si 0.0 0.6059000093333333 0.789466669
 T1 Si 0.0 0.3941000003333333 0.8772000073333333
 T1 Si 0.0 0.3941000003333333 0.8772000073333333
 T1 Si 0.12280000233333332 0.3333333333333333
  0.7274333336666666
 T1 Si 0.12280000233333332 0.3333333333333333
  0.7274333336666666
 T1 Si 0.21053334066666665 0.3333333333333333
  0.9392333426666666
 T1 Si 0.21053334066666665 0.3333333333333333
  0.9392333426666666
 T1 Si 0.12280000233333332 0.3333333333333333
  0.9392333426666666
 T1 Si 0.12280000233333332 0.3333333333333333
  0.9392333426666666
 T1 Si 0.21053334066666665 0.3333333333333333
  0.7274333336666666
 T1 Si 0.21053334066666665 0.3333333333333333
  0.7274333336666666
 T1 Si 0.060766666999999996 0.45613333566666664
  0.6666666666666666
 T1 Si 0.060766666999999996 0.45613333566666664
  0.6666666666666666
 T1 Si 0.272566676 0.543866674 0.6666666666666666
 T1 Si 0.272566676 0.543866674 0.6666666666666666
 T1 Si 0.272566676 0.45613333566666664 0.6666666666666666
 T1 Si 0.272566676 0.45613333566666664 0.6666666666666666
 T1 Si 0.060766666999999996 0.543866674 0.6666666666666666
 T1 Si 0.060766666999999996 0.543866674 0.6666666666666666
 T1 Si 0.060766666999999996 0.3333333333333333
  0.8772000073333333
 T1 Si 0.060766666999999996 0.3333333333333333
  0.8772000073333333
 T1 Si 0.272566676 0.3333333333333333 0.789466669
 T1 Si 0.272566676 0.3333333333333333 0.789466669
 T1 Si 0.272566676 0.3333333333333333 0.8772000073333333
 T1 Si 0.272566676 0.3333333333333333 0.8772000073333333
 T1 Si 0.060766666999999996 0.3333333333333333 0.789466669
 T1 Si 0.060766666999999996 0.3333333333333333 0.789466669
 T1 Si 0.0 0.45613333566666664 0.9392333426666666
 T1 Si 0.0 0.45613333566666664 0.9392333426666666
 T1 Si 0.0 0.543866674 0.7274333336666666
 T1 Si 0.0 0.543866674 0.7274333336666666
 T1 Si 0.0 0.45613333566666664 0.7274333336666666
 T1 Si 0.0 0.45613333566666664 0.7274333336666666
 T1 Si 0.0 0.543866674 0.9392333426666666
 T1 Si 0.0 0.543866674 0.9392333426666666
 T1 Si 0.12280000233333332 0.3941000003333333
  0.6666666666666666
 T1 Si 0.12280000233333332 0.3941000003333333
  0.6666666666666666
 T1 Si 0.21053334066666665 0.6059000093333333
  0.6666666666666666
 T1 Si 0.21053334066666665 0.6059000093333333
  0.6666666666666666
 T1 Si 0.12280000233333332 0.6059000093333333
  0.6666666666666666
 T1 Si 0.12280000233333332 0.6059000093333333
  0.6666666666666666
 T1 Si 0.21053334066666665 0.3941000003333333
  0.6666666666666666
 T1 Si 0.21053334066666665 0.3941000003333333
  0.6666666666666666
 O1 O 0.3333333333333333 0.404066667 0.8333333333333333
 O1 O 0.3333333333333333 0.404066667 0.8333333333333333
 O1 O 0.3333333333333333 0.595933338 0.8333333333333333
 O1 O 0.3333333333333333 0.595933338 0.8333333333333333
 O1 O 0.5 0.3333333333333333 0.7374000003333333
 O1 O 0.5 0.3333333333333333 0.7374000003333333
 O1 O 0.5 0.3333333333333333 0.9292666713333333
 O1 O 0.5 0.3333333333333333 0.9292666713333333
 O1 O 0.404066667 0.5 0.6666666666666666
 O1 O 0.404066667 0.5 0.6666666666666666
 O1 O 0.595933338 0.5 0.6666666666666666
 O1 O 0.595933338 0.5 0.6666666666666666
 O1 O 0.404066667 0.3333333333333333 0.8333333333333333
 O1 O 0.404066667 0.3333333333333333 0.8333333333333333
 O1 O 0.595933338 0.3333333333333333 0.8333333333333333
 O1 O 0.595933338 0.3333333333333333 0.8333333333333333
 O1 O 0.3333333333333333 0.5 0.9292666713333333
 O1 O 0.3333333333333333 0.5 0.9292666713333333
 O1 O 0.3333333333333333 0.5 0.7374000003333333
 O1 O 0.3333333333333333 0.5 0.7374000003333333
 O1 O 0.5 0.404066667 0.6666666666666666
 O1 O 0.5 0.404066667 0.6666666666666666
 O1 O 0.5 0.595933338 0.6666666666666666
 O1 O 0.5 0.595933338 0.6666666666666666
 O2 O 0.37009999899999996 0.37009999899999996
  0.7794666686666667
 O2 O 0.6298999986666667 0.6298999986666667 0.887199998
 O2 O 0.6298999986666667 0.6298999986666667 0.7794666686666667
 O2 O 0.37009999899999996 0.37009999899999996 0.887199998
 O2 O 0.6298999986666667 0.37009999899999996 0.887199998
 O2 O 0.37009999899999996 0.6298999986666667
  0.7794666686666667
 O2 O 0.37009999899999996 0.6298999986666667 0.887199998
 O2 O 0.6298999986666667 0.37009999899999996
  0.7794666686666667
 O2 O 0.4461333353333333 0.37009999899999996
  0.7034333323333333
 O2 O 0.5538666646666667 0.6298999986666667 0.9632333319999999
 O2 O 0.4461333353333333 0.6298999986666667 0.9632333319999999
 O2 O 0.5538666646666667 0.37009999899999996
  0.7034333323333333
 O2 O 0.5538666646666667 0.6298999986666667 0.7034333323333333
 O2 O 0.4461333353333333 0.37009999899999996
  0.9632333319999999
 O2 O 0.5538666646666667 0.37009999899999996
  0.9632333319999999
 O2 O 0.4461333353333333 0.6298999986666667 0.7034333323333333
 O2 O 0.37009999899999996 0.4461333353333333
  0.7034333323333333
 O2 O 0.6298999986666667 0.5538666646666667 0.9632333319999999
 O2 O 0.6298999986666667 0.4461333353333333 0.9632333319999999
 O2 O 0.37009999899999996 0.5538666646666667
  0.7034333323333333
 O2 O 0.37009999899999996 0.5538666646666667
  0.9632333319999999
 O2 O 0.6298999986666667 0.4461333353333333 0.7034333323333333
 O2 O 0.6298999986666667 0.5538666646666667 0.7034333323333333
 O2 O 0.37009999899999996 0.4461333353333333
  0.9632333319999999
 O3 O 0.3333333333333333 0.43223333366666666 0.765566667
 O3 O 0.3333333333333333 0.43223333366666666 0.765566667
 O3 O 0.3333333333333333 0.5677666663333333 0.9010999996666667
 O3 O 0.3333333333333333 0.5677666663333333 0.9010999996666667
 O3 O 0.3333333333333333 0.5677666663333333 0.765566667
 O3 O 0.3333333333333333 0.5677666663333333 0.765566667
 O3 O 0.3333333333333333 0.43223333366666666
  0.9010999996666667
 O3 O 0.3333333333333333 0.43223333366666666
  0.9010999996666667
 O3 O 0.43223333366666666 0.3333333333333333 0.765566667
 O3 O 0.43223333366666666 0.3333333333333333 0.765566667
 O3 O 0.5677666663333333 0.3333333333333333 0.9010999996666667
 O3 O 0.5677666663333333 0.3333333333333333 0.9010999996666667
 O3 O 0.43223333366666666 0.3333333333333333
  0.9010999996666667
 O3 O 0.43223333366666666 0.3333333333333333
  0.9010999996666667
 O3 O 0.5677666663333333 0.3333333333333333 0.765566667
 O3 O 0.5677666663333333 0.3333333333333333 0.765566667
 O3 O 0.43223333366666666 0.43223333366666666
  0.6666666666666666
 O3 O 0.43223333366666666 0.43223333366666666
  0.6666666666666666
 O3 O 0.5677666663333333 0.5677666663333333 0.6666666666666666
 O3 O 0.5677666663333333 0.5677666663333333 0.6666666666666666
 O3 O 0.5677666663333333 0.43223333366666666
  0.6666666666666666
 O3 O 0.5677666663333333 0.43223333366666666
  0.6666666666666666
 O3 O 0.43223333366666666 0.5677666663333333
  0.6666666666666666
 O3 O 0.43223333366666666 0.5677666663333333
  0.6666666666666666
 O2 O 0.6298999986666667 0.37009999899999996
  0.7794666686666667
 O2 O 0.37009998166666663 0.37009999899999996
  0.7794666686666667
 O2 O 0.6298999986666667 0.6298999986666667 0.887199998
 O2 O 0.37009998166666663 0.6298999986666667 0.887199998
 O2 O 0.6298999986666667 0.6298999986666667 0.7794666686666667
 O2 O 0.37009998166666663 0.6298999986666667
  0.7794666686666667
 O2 O 0.6298999986666667 0.37009999899999996 0.887199998
 O2 O 0.37009998166666663 0.37009999899999996 0.887199998
 O2 O 0.4461333353333333 0.6298999986666667 0.7034333323333333
 O2 O 0.4461333353333333 0.37009998166666663
  0.7034333323333333
 O2 O 0.5538666646666667 0.6298999986666667 0.9632333319999999
 O2 O 0.5538666646666667 0.37009998166666663
  0.9632333319999999
 O2 O 0.4461333353333333 0.6298999986666667 0.9632333319999999
 O2 O 0.4461333353333333 0.37009998166666663
  0.9632333319999999
 O2 O 0.5538666646666667 0.6298999986666667 0.7034333323333333
 O2 O 0.5538666646666667 0.37009998166666663
  0.7034333323333333
 O2 O 0.37009999899999996 0.4461333353333333
  0.9632333319999999
 O2 O 0.37009999899999996 0.4461333353333333 0.703433315
 O2 O 0.6298999986666667 0.5538666646666667 0.9632333319999999
 O2 O 0.6298999986666667 0.5538666646666667 0.703433315
 O2 O 0.6298999986666667 0.4461333353333333 0.9632333319999999
 O2 O 0.6298999986666667 0.4461333353333333 0.703433315
 O2 O 0.37009999899999996 0.5538666646666667
  0.9632333319999999
 O2 O 0.37009999899999996 0.5538666646666667 0.703433315
 O2 O 0.37009999899999996 0.6298999986666667 0.887199998
 O2 O 0.37009999899999996 0.37009998166666663 0.887199998
 O2 O 0.6298999986666667 0.6298999986666667 0.7794666686666667
 O2 O 0.6298999986666667 0.37009998166666663
  0.7794666686666667
 O2 O 0.6298999986666667 0.6298999986666667 0.887199998
 O2 O 0.6298999986666667 0.37009998166666663 0.887199998
 O2 O 0.37009999899999996 0.6298999986666667
  0.7794666686666667
 O2 O 0.37009999899999996 0.37009998166666663
  0.7794666686666667
 O2 O 0.6298999986666667 0.4461333353333333 0.9632333319999999
 O2 O 0.37009998166666663 0.4461333353333333
  0.9632333319999999
 O2 O 0.6298999986666667 0.5538666646666667 0.7034333323333333
 O2 O 0.37009998166666663 0.5538666646666667
  0.7034333323333333
 O2 O 0.6298999986666667 0.4461333353333333 0.7034333323333333
 O2 O 0.37009998166666663 0.4461333353333333
  0.7034333323333333
 O2 O 0.6298999986666667 0.5538666646666667 0.9632333319999999
 O2 O 0.37009998166666663 0.5538666646666667
  0.9632333319999999
 O2 O 0.4461333353333333 0.37009999899999996
  0.9632333319999999
 O2 O 0.4461333353333333 0.37009999899999996 0.703433315
 O2 O 0.5538666646666667 0.6298999986666667 0.9632333319999999
 O2 O 0.5538666646666667 0.6298999986666667 0.703433315
 O2 O 0.4461333353333333 0.6298999986666667 0.9632333319999999
 O2 O 0.4461333353333333 0.6298999986666667 0.703433315
 O2 O 0.5538666646666667 0.37009999899999996
  0.9632333319999999
 O2 O 0.5538666646666667 0.37009999899999996 0.703433315
 T1 Si 0.3333333333333333 0.3941000003333333 0.789466669
 T1 Si 0.3333333333333333 0.3941000003333333 0.789466669
 T1 Si 0.3333333333333333 0.6059000093333333
  0.8772000073333333
 T1 Si 0.3333333333333333 0.6059000093333333
  0.8772000073333333
 T1 Si 0.3333333333333333 0.6059000093333333 0.789466669
 T1 Si 0.3333333333333333 0.6059000093333333 0.789466669
 T1 Si 0.3333333333333333 0.3941000003333333
  0.8772000073333333
 T1 Si 0.3333333333333333 0.3941000003333333
  0.8772000073333333
 T1 Si 0.45613333566666664 0.3333333333333333
  0.7274333336666666
 T1 Si 0.45613333566666664 0.3333333333333333
  0.7274333336666666
 T1 Si 0.543866674 0.3333333333333333 0.9392333426666666
 T1 Si 0.543866674 0.3333333333333333 0.9392333426666666
 T1 Si 0.45613333566666664 0.3333333333333333
  0.9392333426666666
 T1 Si 0.45613333566666664 0.3333333333333333
  0.9392333426666666
 T1 Si 0.543866674 0.3333333333333333 0.7274333336666666
 T1 Si 0.543866674 0.3333333333333333 0.7274333336666666
 T1 Si 0.3941000003333333 0.45613333566666664
  0.6666666666666666
 T1 Si 0.3941000003333333 0.45613333566666664
  0.6666666666666666
 T1 Si 0.6059000093333333 0.543866674 0.6666666666666666
 T1 Si 0.6059000093333333 0.543866674 0.6666666666666666
 T1 Si 0.6059000093333333 0.45613333566666664
  0.6666666666666666
 T1 Si 0.6059000093333333 0.45613333566666664
  0.6666666666666666
 T1 Si 0.3941000003333333 0.543866674 0.6666666666666666
 T1 Si 0.3941000003333333 0.543866674 0.6666666666666666
 T1 Si 0.3941000003333333 0.3333333333333333
  0.8772000073333333
 T1 Si 0.3941000003333333 0.3333333333333333
  0.8772000073333333
 T1 Si 0.6059000093333333 0.3333333333333333 0.789466669
 T1 Si 0.6059000093333333 0.3333333333333333 0.789466669
 T1 Si 0.6059000093333333 0.3333333333333333
  0.8772000073333333
 T1 Si 0.6059000093333333 0.3333333333333333
  0.8772000073333333
 T1 Si 0.3941000003333333 0.3333333333333333 0.789466669
 T1 Si 0.3941000003333333 0.3333333333333333 0.789466669
 T1 Si 0.3333333333333333 0.45613333566666664
  0.9392333426666666
 T1 Si 0.3333333333333333 0.45613333566666664
  0.9392333426666666
 T1 Si 0.3333333333333333 0.543866674 0.7274333336666666
 T1 Si 0.3333333333333333 0.543866674 0.7274333336666666
 T1 Si 0.3333333333333333 0.45613333566666664
  0.7274333336666666
 T1 Si 0.3333333333333333 0.45613333566666664
  0.7274333336666666
 T1 Si 0.3333333333333333 0.543866674 0.9392333426666666
 T1 Si 0.3333333333333333 0.543866674 0.9392333426666666
 T1 Si 0.45613333566666664 0.3941000003333333
  0.6666666666666666
 T1 Si 0.45613333566666664 0.3941000003333333
  0.6666666666666666
 T1 Si 0.543866674 0.6059000093333333 0.6666666666666666
 T1 Si 0.543866674 0.6059000093333333 0.6666666666666666
 T1 Si 0.45613333566666664 0.6059000093333333
  0.6666666666666666
 T1 Si 0.45613333566666664 0.6059000093333333
  0.6666666666666666
 T1 Si 0.543866674 0.3941000003333333 0.6666666666666666
 T1 Si 0.543866674 0.3941000003333333 0.6666666666666666
 O1 O 0.6666666666666666 0.404066667 0.8333333333333333
 O1 O 0.6666666666666666 0.404066667 0.8333333333333333
 O1 O 0.6666666666666666 0.595933338 0.8333333333333333
 O1 O 0.6666666666666666 0.595933338 0.8333333333333333
 O1 O 0.8333333333333333 0.3333333333333333 0.7374000003333333
 O1 O 0.8333333333333333 0.3333333333333333 0.7374000003333333
 O1 O 0.8333333333333333 0.3333333333333333 0.9292666713333333
 O1 O 0.8333333333333333 0.3333333333333333 0.9292666713333333
 O1 O 0.7374000003333333 0.5 0.6666666666666666
 O1 O 0.7374000003333333 0.5 0.6666666666666666
 O1 O 0.9292666713333333 0.5 0.6666666666666666
 O1 O 0.9292666713333333 0.5 0.6666666666666666
 O1 O 0.7374000003333333 0.3333333333333333 0.8333333333333333
 O1 O 0.7374000003333333 0.3333333333333333 0.8333333333333333
 O1 O 0.9292666713333333 0.3333333333333333 0.8333333333333333
 O1 O 0.9292666713333333 0.3333333333333333 0.8333333333333333
 O1 O 0.6666666666666666 0.5 0.9292666713333333
 O1 O 0.6666666666666666 0.5 0.9292666713333333
 O1 O 0.6666666666666666 0.5 0.7374000003333333
 O1 O 0.6666666666666666 0.5 0.7374000003333333
 O1 O 0.8333333333333333 0.404066667 0.6666666666666666
 O1 O 0.8333333333333333 0.404066667 0.6666666666666666
 O1 O 0.8333333333333333 0.595933338 0.6666666666666666
 O1 O 0.8333333333333333 0.595933338 0.6666666666666666
 O2 O 0.7034333323333333 0.37009999899999996
  0.7794666686666667
 O2 O 0.9632333319999999 0.6298999986666667 0.887199998
 O2 O 0.9632333319999999 0.6298999986666667 0.7794666686666667
 O2 O 0.7034333323333333 0.37009999899999996 0.887199998
 O2 O 0.9632333319999999 0.37009999899999996 0.887199998
 O2 O 0.7034333323333333 0.6298999986666667 0.7794666686666667
 O2 O 0.7034333323333333 0.6298999986666667 0.887199998
 O2 O 0.9632333319999999 0.37009999899999996
  0.7794666686666667
 O2 O 0.7794666686666667 0.37009999899999996
  0.7034333323333333
 O2 O 0.887199998 0.6298999986666667 0.9632333319999999
 O2 O 0.7794666686666667 0.6298999986666667 0.9632333319999999
 O2 O 0.887199998 0.37009999899999996 0.7034333323333333
 O2 O 0.887199998 0.6298999986666667 0.7034333323333333
 O2 O 0.7794666686666667 0.37009999899999996
  0.9632333319999999
 O2 O 0.887199998 0.37009999899999996 0.9632333319999999
 O2 O 0.7794666686666667 0.6298999986666667 0.7034333323333333
 O2 O 0.7034333323333333 0.4461333353333333 0.7034333323333333
 O2 O 0.9632333319999999 0.5538666646666667 0.9632333319999999
 O2 O 0.9632333319999999 0.4461333353333333 0.9632333319999999
 O2 O 0.7034333323333333 0.5538666646666667 0.7034333323333333
 O2 O 0.7034333323333333 0.5538666646666667 0.9632333319999999
 O2 O 0.9632333319999999 0.4461333353333333 0.7034333323333333
 O2 O 0.9632333319999999 0.5538666646666667 0.7034333323333333
 O2 O 0.7034333323333333 0.4461333353333333 0.9632333319999999
 O3 O 0.6666666666666666 0.43223333366666666 0.765566667
 O3 O 0.6666666666666666 0.43223333366666666 0.765566667
 O3 O 0.6666666666666666 0.5677666663333333 0.9010999996666667
 O3 O 0.6666666666666666 0.5677666663333333 0.9010999996666667
 O3 O 0.6666666666666666 0.5677666663333333 0.765566667
 O3 O 0.6666666666666666 0.5677666663333333 0.765566667
 O3 O 0.6666666666666666 0.43223333366666666
  0.9010999996666667
 O3 O 0.6666666666666666 0.43223333366666666
  0.9010999996666667
 O3 O 0.765566667 0.3333333333333333 0.765566667
 O3 O 0.765566667 0.3333333333333333 0.765566667
 O3 O 0.9010999996666667 0.3333333333333333 0.9010999996666667
 O3 O 0.9010999996666667 0.3333333333333333 0.9010999996666667
 O3 O 0.765566667 0.3333333333333333 0.9010999996666667
 O3 O 0.765566667 0.3333333333333333 0.9010999996666667
 O3 O 0.9010999996666667 0.3333333333333333 0.765566667
 O3 O 0.9010999996666667 0.3333333333333333 0.765566667
 O3 O 0.765566667 0.43223333366666666 0.6666666666666666
 O3 O 0.765566667 0.43223333366666666 0.6666666666666666
 O3 O 0.9010999996666667 0.5677666663333333 0.6666666666666666
 O3 O 0.9010999996666667 0.5677666663333333 0.6666666666666666
 O3 O 0.9010999996666667 0.43223333366666666
  0.6666666666666666
 O3 O 0.9010999996666667 0.43223333366666666
  0.6666666666666666
 O3 O 0.765566667 0.5677666663333333 0.6666666666666666
 O3 O 0.765566667 0.5677666663333333 0.6666666666666666
 O2 O 0.9632333319999999 0.37009999899999996
  0.7794666686666667
 O2 O 0.703433315 0.37009999899999996 0.7794666686666667
 O2 O 0.9632333319999999 0.6298999986666667 0.887199998
 O2 O 0.703433315 0.6298999986666667 0.887199998
 O2 O 0.9632333319999999 0.6298999986666667 0.7794666686666667
 O2 O 0.703433315 0.6298999986666667 0.7794666686666667
 O2 O 0.9632333319999999 0.37009999899999996 0.887199998
 O2 O 0.703433315 0.37009999899999996 0.887199998
 O2 O 0.7794666686666667 0.6298999986666667 0.7034333323333333
 O2 O 0.7794666686666667 0.37009998166666663
  0.7034333323333333
 O2 O 0.887199998 0.6298999986666667 0.9632333319999999
 O2 O 0.887199998 0.37009998166666663 0.9632333319999999
 O2 O 0.7794666686666667 0.6298999986666667 0.9632333319999999
 O2 O 0.7794666686666667 0.37009998166666663
  0.9632333319999999
 O2 O 0.887199998 0.6298999986666667 0.7034333323333333
 O2 O 0.887199998 0.37009998166666663 0.7034333323333333
 O2 O 0.7034333323333333 0.4461333353333333 0.9632333319999999
 O2 O 0.7034333323333333 0.4461333353333333 0.703433315
 O2 O 0.9632333319999999 0.5538666646666667 0.9632333319999999
 O2 O 0.9632333319999999 0.5538666646666667 0.703433315
 O2 O 0.9632333319999999 0.4461333353333333 0.9632333319999999
 O2 O 0.9632333319999999 0.4461333353333333 0.703433315
 O2 O 0.7034333323333333 0.5538666646666667 0.9632333319999999
 O2 O 0.7034333323333333 0.5538666646666667 0.703433315
 O2 O 0.7034333323333333 0.6298999986666667 0.887199998
 O2 O 0.7034333323333333 0.37009998166666663 0.887199998
 O2 O 0.9632333319999999 0.6298999986666667 0.7794666686666667
 O2 O 0.9632333319999999 0.37009998166666663
  0.7794666686666667
 O2 O 0.9632333319999999 0.6298999986666667 0.887199998
 O2 O 0.9632333319999999 0.37009998166666663 0.887199998
 O2 O 0.7034333323333333 0.6298999986666667 0.7794666686666667
 O2 O 0.7034333323333333 0.37009998166666663
  0.7794666686666667
 O2 O 0.9632333319999999 0.4461333353333333 0.9632333319999999
 O2 O 0.703433315 0.4461333353333333 0.9632333319999999
 O2 O 0.9632333319999999 0.5538666646666667 0.7034333323333333
 O2 O 0.703433315 0.5538666646666667 0.7034333323333333
 O2 O 0.9632333319999999 0.4461333353333333 0.7034333323333333
 O2 O 0.703433315 0.4461333353333333 0.7034333323333333
 O2 O 0.9632333319999999 0.5538666646666667 0.9632333319999999
 O2 O 0.703433315 0.5538666646666667 0.9632333319999999
 O2 O 0.7794666686666667 0.37009999899999996
  0.9632333319999999
 O2 O 0.7794666686666667 0.37009999899999996 0.703433315
 O2 O 0.887199998 0.6298999986666667 0.9632333319999999
 O2 O 0.887199998 0.6298999986666667 0.703433315
 O2 O 0.7794666686666667 0.6298999986666667 0.9632333319999999
 O2 O 0.7794666686666667 0.6298999986666667 0.703433315
 O2 O 0.887199998 0.37009999899999996 0.9632333319999999
 O2 O 0.887199998 0.37009999899999996 0.703433315
 T1 Si 0.6666666666666666 0.3941000003333333 0.789466669
 T1 Si 0.6666666666666666 0.3941000003333333 0.789466669
 T1 Si 0.6666666666666666 0.6059000093333333
  0.8772000073333333
 T1 Si 0.6666666666666666 0.6059000093333333
  0.8772000073333333
 T1 Si 0.6666666666666666 0.6059000093333333 0.789466669
 T1 Si 0.6666666666666666 0.6059000093333333 0.789466669
 T1 Si 0.6666666666666666 0.3941000003333333
  0.8772000073333333
 T1 Si 0.6666666666666666 0.3941000003333333
  0.8772000073333333
 T1 Si 0.789466669 0.3333333333333333 0.7274333336666666
 T1 Si 0.789466669 0.3333333333333333 0.7274333336666666
 T1 Si 0.8772000073333333 0.3333333333333333
  0.9392333426666666
 T1 Si 0.8772000073333333 0.3333333333333333
  0.9392333426666666
 T1 Si 0.789466669 0.3333333333333333 0.9392333426666666
 T1 Si 0.789466669 0.3333333333333333 0.9392333426666666
 T1 Si 0.8772000073333333 0.3333333333333333
  0.7274333336666666
 T1 Si 0.8772000073333333 0.3333333333333333
  0.7274333336666666
 T1 Si 0.7274333336666666 0.45613333566666664
  0.6666666666666666
 T1 Si 0.7274333336666666 0.45613333566666664
  0.6666666666666666
 T1 Si 0.9392333426666666 0.543866674 0.6666666666666666
 T1 Si 0.9392333426666666 0.543866674 0.6666666666666666
 T1 Si 0.9392333426666666 0.45613333566666664
  0.6666666666666666
 T1 Si 0.9392333426666666 0.45613333566666664
  0.6666666666666666
 T1 Si 0.7274333336666666 0.543866674 0.6666666666666666
 T1 Si 0.7274333336666666 0.543866674 0.6666666666666666
 T1 Si 0.7274333336666666 0.3333333333333333
  0.8772000073333333
 T1 Si 0.7274333336666666 0.3333333333333333
  0.8772000073333333
 T1 Si 0.9392333426666666 0.3333333333333333 0.789466669
 T1 Si 0.9392333426666666 0.3333333333333333 0.789466669
 T1 Si 0.9392333426666666 0.3333333333333333
  0.8772000073333333
 T1 Si 0.9392333426666666 0.3333333333333333
  0.8772000073333333
 T1 Si 0.7274333336666666 0.3333333333333333 0.789466669
 T1 Si 0.7274333336666666 0.3333333333333333 0.789466669
 T1 Si 0.6666666666666666 0.45613333566666664
  0.9392333426666666
 T1 Si 0.6666666666666666 0.45613333566666664
  0.9392333426666666
 T1 Si 0.6666666666666666 0.543866674 0.7274333336666666
 T1 Si 0.6666666666666666 0.543866674 0.7274333336666666
 T1 Si 0.6666666666666666 0.45613333566666664
  0.7274333336666666
 T1 Si 0.6666666666666666 0.45613333566666664
  0.7274333336666666
 T1 Si 0.6666666666666666 0.543866674 0.9392333426666666
 T1 Si 0.6666666666666666 0.543866674 0.9392333426666666
 T1 Si 0.789466669 0.3941000003333333 0.6666666666666666
 T1 Si 0.789466669 0.3941000003333333 0.6666666666666666
 T1 Si 0.8772000073333333 0.6059000093333333
  0.6666666666666666
 T1 Si 0.8772000073333333 0.6059000093333333
  0.6666666666666666
 T1 Si 0.789466669 0.6059000093333333 0.6666666666666666
 T1 Si 0.789466669 0.6059000093333333 0.6666666666666666
 T1 Si 0.8772000073333333 0.3941000003333333
  0.6666666666666666
 T1 Si 0.8772000073333333 0.3941000003333333
  0.6666666666666666
 O1 O 0.0 0.7374000003333333 0.8333333333333333
 O1 O 0.0 0.7374000003333333 0.8333333333333333
 O1 O 0.0 0.9292666713333333 0.8333333333333333
 O1 O 0.0 0.9292666713333333 0.8333333333333333
 O1 O 0.16666666666666666 0.6666666666666666
  0.7374000003333333
 O1 O 0.16666666666666666 0.6666666666666666
  0.7374000003333333
 O1 O 0.16666666666666666 0.6666666666666666
  0.9292666713333333
 O1 O 0.16666666666666666 0.6666666666666666
  0.9292666713333333
 O1 O 0.07073333366666666 0.8333333333333333
  0.6666666666666666
 O1 O 0.07073333366666666 0.8333333333333333
  0.6666666666666666
 O1 O 0.26260000466666666 0.8333333333333333
  0.6666666666666666
 O1 O 0.26260000466666666 0.8333333333333333
  0.6666666666666666
 O1 O 0.07073333366666666 0.6666666666666666
  0.8333333333333333
 O1 O 0.07073333366666666 0.6666666666666666
  0.8333333333333333
 O1 O 0.26260000466666666 0.6666666666666666
  0.8333333333333333
 O1 O 0.26260000466666666 0.6666666666666666
  0.8333333333333333
 O1 O 0.0 0.8333333333333333 0.9292666713333333
 O1 O 0.0 0.8333333333333333 0.9292666713333333
 O1 O 0.0 0.8333333333333333 0.7374000003333333
 O1 O 0.0 0.8333333333333333 0.7374000003333333
 O1 O 0.16666666666666666 0.7374000003333333
  0.6666666666666666
 O1 O 0.16666666666666666 0.7374000003333333
  0.6666666666666666
 O1 O 0.16666666666666666 0.9292666713333333
  0.6666666666666666
 O1 O 0.16666666666666666 0.9292666713333333
  0.6666666666666666
 O2 O 0.03676666566666666 0.7034333323333333
  0.7794666686666667
 O2 O 0.29656666533333337 0.9632333319999999 0.887199998
 O2 O 0.29656666533333337 0.9632333319999999
  0.7794666686666667
 O2 O 0.03676666566666666 0.7034333323333333 0.887199998
 O2 O 0.29656666533333337 0.7034333323333333 0.887199998
 O2 O 0.03676666566666666 0.9632333319999999
  0.7794666686666667
 O2 O 0.03676666566666666 0.9632333319999999 0.887199998
 O2 O 0.29656666533333337 0.7034333323333333
  0.7794666686666667
 O2 O 0.112800002 0.7034333323333333 0.7034333323333333
 O2 O 0.22053333133333333 0.9632333319999999
  0.9632333319999999
 O2 O 0.112800002 0.9632333319999999 0.9632333319999999
 O2 O 0.22053333133333333 0.7034333323333333
  0.7034333323333333
 O2 O 0.22053333133333333 0.9632333319999999
  0.7034333323333333
 O2 O 0.112800002 0.7034333323333333 0.9632333319999999
 O2 O 0.22053333133333333 0.7034333323333333
  0.9632333319999999
 O2 O 0.112800002 0.9632333319999999 0.7034333323333333
 O2 O 0.03676666566666666 0.7794666686666667
  0.7034333323333333
 O2 O 0.29656666533333337 0.887199998 0.9632333319999999
 O2 O 0.29656666533333337 0.7794666686666667
  0.9632333319999999
 O2 O 0.03676666566666666 0.887199998 0.7034333323333333
 O2 O 0.03676666566666666 0.887199998 0.9632333319999999
 O2 O 0.29656666533333337 0.7794666686666667
  0.7034333323333333
 O2 O 0.29656666533333337 0.887199998 0.7034333323333333
 O2 O 0.03676666566666666 0.7794666686666667
  0.9632333319999999
 O3 O 0.0 0.765566667 0.765566667
 O3 O 0.0 0.765566667 0.765566667
 O3 O 0.0 0.9010999996666667 0.9010999996666667
 O3 O 0.0 0.9010999996666667 0.9010999996666667
 O3 O 0.0 0.9010999996666667 0.765566667
 O3 O 0.0 0.9010999996666667 0.765566667
 O3 O 0.0 0.765566667 0.9010999996666667
 O3 O 0.0 0.765566667 0.9010999996666667
 O3 O 0.09890000033333333 0.6666666666666666 0.765566667
 O3 O 0.09890000033333333 0.6666666666666666 0.765566667
 O3 O 0.234433333 0.6666666666666666 0.9010999996666667
 O3 O 0.234433333 0.6666666666666666 0.9010999996666667
 O3 O 0.09890000033333333 0.6666666666666666
  0.9010999996666667
 O3 O 0.09890000033333333 0.6666666666666666
  0.9010999996666667
 O3 O 0.234433333 0.6666666666666666 0.765566667
 O3 O 0.234433333 0.6666666666666666 0.765566667
 O3 O 0.09890000033333333 0.765566667 0.6666666666666666
 O3 O 0.09890000033333333 0.765566667 0.6666666666666666
 O3 O 0.234433333 0.9010999996666667 0.6666666666666666
 O3 O 0.234433333 0.9010999996666667 0.6666666666666666
 O3 O 0.234433333 0.765566667 0.6666666666666666
 O3 O 0.234433333 0.765566667 0.6666666666666666
 O3 O 0.09890000033333333 0.9010999996666667
  0.6666666666666666
 O3 O 0.09890000033333333 0.9010999996666667
  0.6666666666666666
 O2 O 0.29656666533333337 0.7034333323333333
  0.7794666686666667
 O2 O 0.03676664833333333 0.7034333323333333
  0.7794666686666667
 O2 O 0.29656666533333337 0.9632333319999999 0.887199998
 O2 O 0.03676664833333333 0.9632333319999999 0.887199998
 O2 O 0.29656666533333337 0.9632333319999999
  0.7794666686666667
 O2 O 0.03676664833333333 0.9632333319999999
  0.7794666686666667
 O2 O 0.29656666533333337 0.7034333323333333 0.887199998
 O2 O 0.03676664833333333 0.7034333323333333 0.887199998
 O2 O 0.112800002 0.9632333319999999 0.7034333323333333
 O2 O 0.112800002 0.703433315 0.7034333323333333
 O2 O 0.22053333133333333 0.9632333319999999
  0.9632333319999999
 O2 O 0.22053333133333333 0.703433315 0.9632333319999999
 O2 O 0.112800002 0.9632333319999999 0.9632333319999999
 O2 O 0.112800002 0.703433315 0.9632333319999999
 O2 O 0.22053333133333333 0.9632333319999999
  0.7034333323333333
 O2 O 0.22053333133333333 0.703433315 0.7034333323333333
 O2 O 0.03676666566666666 0.7794666686666667
  0.9632333319999999
 O2 O 0.03676666566666666 0.7794666686666667 0.703433315
 O2 O 0.29656666533333337 0.887199998 0.9632333319999999
 O2 O 0.29656666533333337 0.887199998 0.703433315
 O2 O 0.29656666533333337 0.7794666686666667
  0.9632333319999999
 O2 O 0.29656666533333337 0.7794666686666667 0.703433315
 O2 O 0.03676666566666666 0.887199998 0.9632333319999999
 O2 O 0.03676666566666666 0.887199998 0.703433315
 O2 O 0.03676666566666666 0.9632333319999999 0.887199998
 O2 O 0.03676666566666666 0.703433315 0.887199998
 O2 O 0.29656666533333337 0.9632333319999999
  0.7794666686666667
 O2 O 0.29656666533333337 0.703433315 0.7794666686666667
 O2 O 0.29656666533333337 0.9632333319999999 0.887199998
 O2 O 0.29656666533333337 0.703433315 0.887199998
 O2 O 0.03676666566666666 0.9632333319999999
  0.7794666686666667
 O2 O 0.03676666566666666 0.703433315 0.7794666686666667
 O2 O 0.29656666533333337 0.7794666686666667
  0.9632333319999999
 O2 O 0.03676664833333333 0.7794666686666667
  0.9632333319999999
 O2 O 0.29656666533333337 0.887199998 0.7034333323333333
 O2 O 0.03676664833333333 0.887199998 0.7034333323333333
 O2 O 0.29656666533333337 0.7794666686666667
  0.7034333323333333
 O2 O 0.03676664833333333 0.7794666686666667
  0.7034333323333333
 O2 O 0.29656666533333337 0.887199998 0.9632333319999999
 O2 O 0.03676664833333333 0.887199998 0.9632333319999999
 O2 O 0.112800002 0.7034333323333333 0.9632333319999999
 O2 O 0.112800002 0.7034333323333333 0.703433315
 O2 O 0.22053333133333333 0.9632333319999999
  0.9632333319999999
 O2 O 0.22053333133333333 0.9632333319999999 0.703433315
 O2 O 0.112800002 0.9632333319999999 0.9632333319999999
 O2 O 0.112800002 0.9632333319999999 0.703433315
 O2 O 0.22053333133333333 0.7034333323333333
  0.9632333319999999
 O2 O 0.22053333133333333 0.7034333323333333 0.703433315
 T1 Si 0.0 0.7274333336666666 0.789466669
 T1 Si 0.0 0.7274333336666666 0.789466669
 T1 Si 0.0 0.9392333426666666 0.8772000073333333
 T1 Si 0.0 0.9392333426666666 0.8772000073333333
 T1 Si 0.0 0.9392333426666666 0.789466669
 T1 Si 0.0 0.9392333426666666 0.789466669
 T1 Si 0.0 0.7274333336666666 0.8772000073333333
 T1 Si 0.0 0.7274333336666666 0.8772000073333333
 T1 Si 0.12280000233333332 0.6666666666666666
  0.7274333336666666
 T1 Si 0.12280000233333332 0.6666666666666666
  0.7274333336666666
 T1 Si 0.21053334066666665 0.6666666666666666
  0.9392333426666666
 T1 Si 0.21053334066666665 0.6666666666666666
  0.9392333426666666
 T1 Si 0.12280000233333332 0.6666666666666666
  0.9392333426666666
 T1 Si 0.12280000233333332 0.6666666666666666
  0.9392333426666666
 T1 Si 0.21053334066666665 0.6666666666666666
  0.7274333336666666
 T1 Si 0.21053334066666665 0.6666666666666666
  0.7274333336666666
 T1 Si 0.060766666999999996 0.789466669 0.6666666666666666
 T1 Si 0.060766666999999996 0.789466669 0.6666666666666666
 T1 Si 0.272566676 0.8772000073333333 0.6666666666666666
 T1 Si 0.272566676 0.8772000073333333 0.6666666666666666
 T1 Si 0.272566676 0.789466669 0.6666666666666666
 T1 Si 0.272566676 0.789466669 0.6666666666666666
 T1 Si 0.060766666999999996 0.8772000073333333
  0.6666666666666666
 T1 Si 0.060766666999999996 0.8772000073333333
  0.6666666666666666
 T1 Si 0.060766666999999996 0.6666666666666666
  0.8772000073333333
 T1 Si 0.060766666999999996 0.6666666666666666
  0.8772000073333333
 T1 Si 0.272566676 0.6666666666666666 0.789466669
 T1 Si 0.272566676 0.6666666666666666 0.789466669
 T1 Si 0.272566676 0.6666666666666666 0.8772000073333333
 T1 Si 0.272566676 0.6666666666666666 0.8772000073333333
 T1 Si 0.060766666999999996 0.6666666666666666 0.789466669
 T1 Si 0.060766666999999996 0.6666666666666666 0.789466669
 T1 Si 0.0 0.789466669 0.9392333426666666
 T1 Si 0.0 0.789466669 0.9392333426666666
 T1 Si 0.0 0.8772000073333333 0.7274333336666666
 T1 Si 0.0 0.8772000073333333 0.7274333336666666
 T1 Si 0.0 0.789466669 0.7274333336666666
 T1 Si 0.0 0.789466669 0.7274333336666666
 T1 Si 0.0 0.8772000073333333 0.9392333426666666
 T1 Si 0.0 0.8772000073333333 0.9392333426666666
 T1 Si 0.12280000233333332 0.7274333336666666
  0.6666666666666666
 T1 Si 0.12280000233333332 0.7274333336666666
  0.6666666666666666
 T1 Si 0.21053334066666665 0.9392333426666666
  0.6666666666666666
 T1 Si 0.21053334066666665 0.9392333426666666
  0.6666666666666666
 T1 Si 0.12280000233333332 0.9392333426666666
  0.6666666666666666
 T1 Si 0.12280000233333332 0.9392333426666666
  0.6666666666666666
 T1 Si 0.21053334066666665 0.7274333336666666
  0.6666666666666666
 T1 Si 0.21053334066666665 0.7274333336666666
  0.6666666666666666
 O1 O 0.3333333333333333 0.7374000003333333 0.8333333333333333
 O1 O 0.3333333333333333 0.7374000003333333 0.8333333333333333
 O1 O 0.3333333333333333 0.9292666713333333 0.8333333333333333
 O1 O 0.3333333333333333 0.9292666713333333 0.8333333333333333
 O1 O 0.5 0.6666666666666666 0.7374000003333333
 O1 O 0.5 0.6666666666666666 0.7374000003333333
 O1 O 0.5 0.6666666666666666 0.9292666713333333
 O1 O 0.5 0.6666666666666666 0.9292666713333333
 O1 O 0.404066667 0.8333333333333333 0.6666666666666666
 O1 O 0.404066667 0.8333333333333333 0.6666666666666666
 O1 O 0.595933338 0.8333333333333333 0.6666666666666666
 O1 O 0.595933338 0.8333333333333333 0.6666666666666666
 O1 O 0.404066667 0.6666666666666666 0.8333333333333333
 O1 O 0.404066667 0.6666666666666666 0.8333333333333333
 O1 O 0.595933338 0.6666666666666666 0.8333333333333333
 O1 O 0.595933338 0.6666666666666666 0.8333333333333333
 O1 O 0.3333333333333333 0.8333333333333333 0.9292666713333333
 O1 O 0.3333333333333333 0.8333333333333333 0.9292666713333333
 O1 O 0.3333333333333333 0.8333333333333333 0.7374000003333333
 O1 O 0.3333333333333333 0.8333333333333333 0.7374000003333333
 O1 O 0.5 0.7374000003333333 0.6666666666666666
 O1 O 0.5 0.7374000003333333 0.6666666666666666
 O1 O 0.5 0.9292666713333333 0.6666666666666666
 O1 O 0.5 0.9292666713333333 0.6666666666666666
 O2 O 0.37009999899999996 0.7034333323333333
  0.7794666686666667
 O2 O 0.6298999986666667 0.9632333319999999 0.887199998
 O2 O 0.6298999986666667 0.9632333319999999 0.7794666686666667
 O2 O 0.37009999899999996 0.7034333323333333 0.887199998
 O2 O 0.6298999986666667 0.7034333323333333 0.887199998
 O2 O 0.37009999899999996 0.9632333319999999
  0.7794666686666667
 O2 O 0.37009999899999996 0.9632333319999999 0.887199998
 O2 O 0.6298999986666667 0.7034333323333333 0.7794666686666667
 O2 O 0.4461333353333333 0.7034333323333333 0.7034333323333333
 O2 O 0.5538666646666667 0.9632333319999999 0.9632333319999999
 O2 O 0.4461333353333333 0.9632333319999999 0.9632333319999999
 O2 O 0.5538666646666667 0.7034333323333333 0.7034333323333333
 O2 O 0.5538666646666667 0.9632333319999999 0.7034333323333333
 O2 O 0.4461333353333333 0.7034333323333333 0.9632333319999999
 O2 O 0.5538666646666667 0.7034333323333333 0.9632333319999999
 O2 O 0.4461333353333333 0.9632333319999999 0.7034333323333333
 O2 O 0.37009999899999996 0.7794666686666667
  0.7034333323333333
 O2 O 0.6298999986666667 0.887199998 0.9632333319999999
 O2 O 0.6298999986666667 0.7794666686666667 0.9632333319999999
 O2 O 0.37009999899999996 0.887199998 0.7034333323333333
 O2 O 0.37009999899999996 0.887199998 0.9632333319999999
 O2 O 0.6298999986666667 0.7794666686666667 0.7034333323333333
 O2 O 0.6298999986666667 0.887199998 0.7034333323333333
 O2 O 0.37009999899999996 0.7794666686666667
  0.9632333319999999
 O3 O 0.3333333333333333 0.765566667 0.765566667
 O3 O 0.3333333333333333 0.765566667 0.765566667
 O3 O 0.3333333333333333 0.9010999996666667 0.9010999996666667
 O3 O 0.3333333333333333 0.9010999996666667 0.9010999996666667
 O3 O 0.3333333333333333 0.9010999996666667 0.765566667
 O3 O 0.3333333333333333 0.9010999996666667 0.765566667
 O3 O 0.3333333333333333 0.765566667 0.9010999996666667
 O3 O 0.3333333333333333 0.765566667 0.9010999996666667
 O3 O 0.43223333366666666 0.6666666666666666 0.765566667
 O3 O 0.43223333366666666 0.6666666666666666 0.765566667
 O3 O 0.5677666663333333 0.6666666666666666 0.9010999996666667
 O3 O 0.5677666663333333 0.6666666666666666 0.9010999996666667
 O3 O 0.43223333366666666 0.6666666666666666
  0.9010999996666667
 O3 O 0.43223333366666666 0.6666666666666666
  0.9010999996666667
 O3 O 0.5677666663333333 0.6666666666666666 0.765566667
 O3 O 0.5677666663333333 0.6666666666666666 0.765566667
 O3 O 0.43223333366666666 0.765566667 0.6666666666666666
 O3 O 0.43223333366666666 0.765566667 0.6666666666666666
 O3 O 0.5677666663333333 0.9010999996666667 0.6666666666666666
 O3 O 0.5677666663333333 0.9010999996666667 0.6666666666666666
 O3 O 0.5677666663333333 0.765566667 0.6666666666666666
 O3 O 0.5677666663333333 0.765566667 0.6666666666666666
 O3 O 0.43223333366666666 0.9010999996666667
  0.6666666666666666
 O3 O 0.43223333366666666 0.9010999996666667
  0.6666666666666666
 O2 O 0.6298999986666667 0.7034333323333333 0.7794666686666667
 O2 O 0.37009998166666663 0.7034333323333333
  0.7794666686666667
 O2 O 0.6298999986666667 0.9632333319999999 0.887199998
 O2 O 0.37009998166666663 0.9632333319999999 0.887199998
 O2 O 0.6298999986666667 0.9632333319999999 0.7794666686666667
 O2 O 0.37009998166666663 0.9632333319999999
  0.7794666686666667
 O2 O 0.6298999986666667 0.7034333323333333 0.887199998
 O2 O 0.37009998166666663 0.7034333323333333 0.887199998
 O2 O 0.4461333353333333 0.9632333319999999 0.7034333323333333
 O2 O 0.4461333353333333 0.703433315 0.7034333323333333
 O2 O 0.5538666646666667 0.9632333319999999 0.9632333319999999
 O2 O 0.5538666646666667 0.703433315 0.9632333319999999
 O2 O 0.4461333353333333 0.9632333319999999 0.9632333319999999
 O2 O 0.4461333353333333 0.703433315 0.9632333319999999
 O2 O 0.5538666646666667 0.9632333319999999 0.7034333323333333
 O2 O 0.5538666646666667 0.703433315 0.7034333323333333
 O2 O 0.37009999899999996 0.7794666686666667
  0.9632333319999999
 O2 O 0.37009999899999996 0.7794666686666667 0.703433315
 O2 O 0.6298999986666667 0.887199998 0.9632333319999999
 O2 O 0.6298999986666667 0.887199998 0.703433315
 O2 O 0.6298999986666667 0.7794666686666667 0.9632333319999999
 O2 O 0.6298999986666667 0.7794666686666667 0.703433315
 O2 O 0.37009999899999996 0.887199998 0.9632333319999999
 O2 O 0.37009999899999996 0.887199998 0.703433315
 O2 O 0.37009999899999996 0.9632333319999999 0.887199998
 O2 O 0.37009999899999996 0.703433315 0.887199998
 O2 O 0.6298999986666667 0.9632333319999999 0.7794666686666667
 O2 O 0.6298999986666667 0.703433315 0.7794666686666667
 O2 O 0.6298999986666667 0.9632333319999999 0.887199998
 O2 O 0.6298999986666667 0.703433315 0.887199998
 O2 O 0.37009999899999996 0.9632333319999999
  0.7794666686666667
 O2 O 0.37009999899999996 0.703433315 0.7794666686666667
 O2 O 0.6298999986666667 0.7794666686666667 0.9632333319999999
 O2 O 0.37009998166666663 0.7794666686666667
  0.9632333319999999
 O2 O 0.6298999986666667 0.887199998 0.7034333323333333
 O2 O 0.37009998166666663 0.887199998 0.7034333323333333
 O2 O 0.6298999986666667 0.7794666686666667 0.7034333323333333
 O2 O 0.37009998166666663 0.7794666686666667
  0.7034333323333333
 O2 O 0.6298999986666667 0.887199998 0.9632333319999999
 O2 O 0.37009998166666663 0.887199998 0.9632333319999999
 O2 O 0.4461333353333333 0.7034333323333333 0.9632333319999999
 O2 O 0.4461333353333333 0.7034333323333333 0.703433315
 O2 O 0.5538666646666667 0.9632333319999999 0.9632333319999999
 O2 O 0.5538666646666667 0.9632333319999999 0.703433315
 O2 O 0.4461333353333333 0.9632333319999999 0.9632333319999999
 O2 O 0.4461333353333333 0.9632333319999999 0.703433315
 O2 O 0.5538666646666667 0.7034333323333333 0.9632333319999999
 O2 O 0.5538666646666667 0.7034333323333333 0.703433315
 T1 Si 0.3333333333333333 0.7274333336666666 0.789466669
 T1 Si 0.3333333333333333 0.7274333336666666 0.789466669
 T1 Si 0.3333333333333333 0.9392333426666666
  0.8772000073333333
 T1 Si 0.3333333333333333 0.9392333426666666
  0.8772000073333333
 T1 Si 0.3333333333333333 0.9392333426666666 0.789466669
 T1 Si 0.3333333333333333 0.9392333426666666 0.789466669
 T1 Si 0.3333333333333333 0.7274333336666666
  0.8772000073333333
 T1 Si 0.3333333333333333 0.7274333336666666
  0.8772000073333333
 T1 Si 0.45613333566666664 0.6666666666666666
  0.7274333336666666
 T1 Si 0.45613333566666664 0.6666666666666666
  0.7274333336666666
 T1 Si 0.543866674 0.6666666666666666 0.9392333426666666
 T1 Si 0.543866674 0.6666666666666666 0.9392333426666666
 T1 Si 0.45613333566666664 0.6666666666666666
  0.9392333426666666
 T1 Si 0.45613333566666664 0.6666666666666666
  0.9392333426666666
 T1 Si 0.543866674 0.6666666666666666 0.7274333336666666
 T1 Si 0.543866674 0.6666666666666666 0.7274333336666666
 T1 Si 0.3941000003333333 0.789466669 0.6666666666666666
 T1 Si 0.3941000003333333 0.789466669 0.6666666666666666
 T1 Si 0.6059000093333333 0.8772000073333333
  0.6666666666666666
 T1 Si 0.6059000093333333 0.8772000073333333
  0.6666666666666666
 T1 Si 0.6059000093333333 0.789466669 0.6666666666666666
 T1 Si 0.6059000093333333 0.789466669 0.6666666666666666
 T1 Si 0.3941000003333333 0.8772000073333333
  0.6666666666666666
 T1 Si 0.3941000003333333 0.8772000073333333
  0.6666666666666666
 T1 Si 0.3941000003333333 0.6666666666666666
  0.8772000073333333
 T1 Si 0.3941000003333333 0.6666666666666666
  0.8772000073333333
 T1 Si 0.6059000093333333 0.6666666666666666 0.789466669
 T1 Si 0.6059000093333333 0.6666666666666666 0.789466669
 T1 Si 0.6059000093333333 0.6666666666666666
  0.8772000073333333
 T1 Si 0.6059000093333333 0.6666666666666666
  0.8772000073333333
 T1 Si 0.3941000003333333 0.6666666666666666 0.789466669
 T1 Si 0.3941000003333333 0.6666666666666666 0.789466669
 T1 Si 0.3333333333333333 0.789466669 0.9392333426666666
 T1 Si 0.3333333333333333 0.789466669 0.9392333426666666
 T1 Si 0.3333333333333333 0.8772000073333333
  0.7274333336666666
 T1 Si 0.3333333333333333 0.8772000073333333
  0.7274333336666666
 T1 Si 0.3333333333333333 0.789466669 0.7274333336666666
 T1 Si 0.3333333333333333 0.789466669 0.7274333336666666
 T1 Si 0.3333333333333333 0.8772000073333333
  0.9392333426666666
 T1 Si 0.3333333333333333 0.8772000073333333
  0.9392333426666666
 T1 Si 0.45613333566666664 0.7274333336666666
  0.6666666666666666
 T1 Si 0.45613333566666664 0.7274333336666666
  0.6666666666666666
 T1 Si 0.543866674 0.9392333426666666 0.6666666666666666
 T1 Si 0.543866674 0.9392333426666666 0.6666666666666666
 T1 Si 0.45613333566666664 0.9392333426666666
  0.6666666666666666
 T1 Si 0.45613333566666664 0.9392333426666666
  0.6666666666666666
 T1 Si 0.543866674 0.7274333336666666 0.6666666666666666
 T1 Si 0.543866674 0.7274333336666666 0.6666666666666666
 O1 O 0.6666666666666666 0.7374000003333333 0.8333333333333333
 O1 O 0.6666666666666666 0.7374000003333333 0.8333333333333333
 O1 O 0.6666666666666666 0.9292666713333333 0.8333333333333333
 O1 O 0.6666666666666666 0.9292666713333333 0.8333333333333333
 O1 O 0.8333333333333333 0.6666666666666666 0.7374000003333333
 O1 O 0.8333333333333333 0.6666666666666666 0.7374000003333333
 O1 O 0.8333333333333333 0.6666666666666666 0.9292666713333333
 O1 O 0.8333333333333333 0.6666666666666666 0.9292666713333333
 O1 O 0.7374000003333333 0.8333333333333333 0.6666666666666666
 O1 O 0.7374000003333333 0.8333333333333333 0.6666666666666666
 O1 O 0.9292666713333333 0.8333333333333333 0.6666666666666666
 O1 O 0.9292666713333333 0.8333333333333333 0.6666666666666666
 O1 O 0.7374000003333333 0.6666666666666666 0.8333333333333333
 O1 O 0.7374000003333333 0.6666666666666666 0.8333333333333333
 O1 O 0.9292666713333333 0.6666666666666666 0.8333333333333333
 O1 O 0.9292666713333333 0.6666666666666666 0.8333333333333333
 O1 O 0.6666666666666666 0.8333333333333333 0.9292666713333333
 O1 O 0.6666666666666666 0.8333333333333333 0.9292666713333333
 O1 O 0.6666666666666666 0.8333333333333333 0.7374000003333333
 O1 O 0.6666666666666666 0.8333333333333333 0.7374000003333333
 O1 O 0.8333333333333333 0.7374000003333333 0.6666666666666666
 O1 O 0.8333333333333333 0.7374000003333333 0.6666666666666666
 O1 O 0.8333333333333333 0.9292666713333333 0.6666666666666666
 O1 O 0.8333333333333333 0.9292666713333333 0.6666666666666666
 O2 O 0.7034333323333333 0.7034333323333333 0.7794666686666667
 O2 O 0.9632333319999999 0.9632333319999999 0.887199998
 O2 O 0.9632333319999999 0.9632333319999999 0.7794666686666667
 O2 O 0.7034333323333333 0.7034333323333333 0.887199998
 O2 O 0.9632333319999999 0.7034333323333333 0.887199998
 O2 O 0.7034333323333333 0.9632333319999999 0.7794666686666667
 O2 O 0.7034333323333333 0.9632333319999999 0.887199998
 O2 O 0.9632333319999999 0.7034333323333333 0.7794666686666667
 O2 O 0.7794666686666667 0.7034333323333333 0.7034333323333333
 O2 O 0.887199998 0.9632333319999999 0.9632333319999999
 O2 O 0.7794666686666667 0.9632333319999999 0.9632333319999999
 O2 O 0.887199998 0.7034333323333333 0.7034333323333333
 O2 O 0.887199998 0.9632333319999999 0.7034333323333333
 O2 O 0.7794666686666667 0.7034333323333333 0.9632333319999999
 O2 O 0.887199998 0.7034333323333333 0.9632333319999999
 O2 O 0.7794666686666667 0.9632333319999999 0.7034333323333333
 O2 O 0.7034333323333333 0.7794666686666667 0.7034333323333333
 O2 O 0.9632333319999999 0.887199998 0.9632333319999999
 O2 O 0.9632333319999999 0.7794666686666667 0.9632333319999999
 O2 O 0.7034333323333333 0.887199998 0.7034333323333333
 O2 O 0.7034333323333333 0.887199998 0.9632333319999999
 O2 O 0.9632333319999999 0.7794666686666667 0.7034333323333333
 O2 O 0.9632333319999999 0.887199998 0.7034333323333333
 O2 O 0.7034333323333333 0.7794666686666667 0.9632333319999999
 O3 O 0.6666666666666666 0.765566667 0.765566667
 O3 O 0.6666666666666666 0.765566667 0.765566667
 O3 O 0.6666666666666666 0.9010999996666667 0.9010999996666667
 O3 O 0.6666666666666666 0.9010999996666667 0.9010999996666667
 O3 O 0.6666666666666666 0.9010999996666667 0.765566667
 O3 O 0.6666666666666666 0.9010999996666667 0.765566667
 O3 O 0.6666666666666666 0.765566667 0.9010999996666667
 O3 O 0.6666666666666666 0.765566667 0.9010999996666667
 O3 O 0.765566667 0.6666666666666666 0.765566667
 O3 O 0.765566667 0.6666666666666666 0.765566667
 O3 O 0.9010999996666667 0.6666666666666666 0.9010999996666667
 O3 O 0.9010999996666667 0.6666666666666666 0.9010999996666667
 O3 O 0.765566667 0.6666666666666666 0.9010999996666667
 O3 O 0.765566667 0.6666666666666666 0.9010999996666667
 O3 O 0.9010999996666667 0.6666666666666666 0.765566667
 O3 O 0.9010999996666667 0.6666666666666666 0.765566667
 O3 O 0.765566667 0.765566667 0.6666666666666666
 O3 O 0.765566667 0.765566667 0.6666666666666666
 O3 O 0.9010999996666667 0.9010999996666667 0.6666666666666666
 O3 O 0.9010999996666667 0.9010999996666667 0.6666666666666666
 O3 O 0.9010999996666667 0.765566667 0.6666666666666666
 O3 O 0.9010999996666667 0.765566667 0.6666666666666666
 O3 O 0.765566667 0.9010999996666667 0.6666666666666666
 O3 O 0.765566667 0.9010999996666667 0.6666666666666666
 O2 O 0.9632333319999999 0.7034333323333333 0.7794666686666667
 O2 O 0.703433315 0.7034333323333333 0.7794666686666667
 O2 O 0.9632333319999999 0.9632333319999999 0.887199998
 O2 O 0.703433315 0.9632333319999999 0.887199998
 O2 O 0.9632333319999999 0.9632333319999999 0.7794666686666667
 O2 O 0.703433315 0.9632333319999999 0.7794666686666667
 O2 O 0.9632333319999999 0.7034333323333333 0.887199998
 O2 O 0.703433315 0.7034333323333333 0.887199998
 O2 O 0.7794666686666667 0.9632333319999999 0.7034333323333333
 O2 O 0.7794666686666667 0.703433315 0.7034333323333333
 O2 O 0.887199998 0.9632333319999999 0.9632333319999999
 O2 O 0.887199998 0.703433315 0.9632333319999999
 O2 O 0.7794666686666667 0.9632333319999999 0.9632333319999999
 O2 O 0.7794666686666667 0.703433315 0.9632333319999999
 O2 O 0.887199998 0.9632333319999999 0.7034333323333333
 O2 O 0.887199998 0.703433315 0.7034333323333333
 O2 O 0.7034333323333333 0.7794666686666667 0.9632333319999999
 O2 O 0.7034333323333333 0.7794666686666667 0.703433315
 O2 O 0.9632333319999999 0.887199998 0.9632333319999999
 O2 O 0.9632333319999999 0.887199998 0.703433315
 O2 O 0.9632333319999999 0.7794666686666667 0.9632333319999999
 O2 O 0.9632333319999999 0.7794666686666667 0.703433315
 O2 O 0.7034333323333333 0.887199998 0.9632333319999999
 O2 O 0.7034333323333333 0.887199998 0.703433315
 O2 O 0.7034333323333333 0.9632333319999999 0.887199998
 O2 O 0.7034333323333333 0.703433315 0.887199998
 O2 O 0.9632333319999999 0.9632333319999999 0.7794666686666667
 O2 O 0.9632333319999999 0.703433315 0.7794666686666667
 O2 O 0.9632333319999999 0.9632333319999999 0.887199998
 O2 O 0.9632333319999999 0.703433315 0.887199998
 O2 O 0.7034333323333333 0.9632333319999999 0.7794666686666667
 O2 O 0.7034333323333333 0.703433315 0.7794666686666667
 O2 O 0.9632333319999999 0.7794666686666667 0.9632333319999999
 O2 O 0.703433315 0.7794666686666667 0.9632333319999999
 O2 O 0.9632333319999999 0.887199998 0.7034333323333333
 O2 O 0.703433315 0.887199998 0.7034333323333333
 O2 O 0.9632333319999999 0.7794666686666667 0.7034333323333333
 O2 O 0.703433315 0.7794666686666667 0.7034333323333333
 O2 O 0.9632333319999999 0.887199998 0.9632333319999999
 O2 O 0.703433315 0.887199998 0.9632333319999999
 O2 O 0.7794666686666667 0.7034333323333333 0.9632333319999999
 O2 O 0.7794666686666667 0.7034333323333333 0.703433315
 O2 O 0.887199998 0.9632333319999999 0.9632333319999999
 O2 O 0.887199998 0.9632333319999999 0.703433315
 O2 O 0.7794666686666667 0.9632333319999999 0.9632333319999999
 O2 O 0.7794666686666667 0.9632333319999999 0.703433315
 O2 O 0.887199998 0.7034333323333333 0.9632333319999999
 O2 O 0.887199998 0.7034333323333333 0.703433315
 T1 Si 0.6666666666666666 0.7274333336666666 0.789466669
 T1 Si 0.6666666666666666 0.7274333336666666 0.789466669
 T1 Si 0.6666666666666666 0.9392333426666666
  0.8772000073333333
 T1 Si 0.6666666666666666 0.9392333426666666
  0.8772000073333333
 T1 Si 0.6666666666666666 0.9392333426666666 0.789466669
 T1 Si 0.6666666666666666 0.9392333426666666 0.789466669
 T1 Si 0.6666666666666666 0.7274333336666666
  0.8772000073333333
 T1 Si 0.6666666666666666 0.7274333336666666
  0.8772000073333333
 T1 Si 0.789466669 0.6666666666666666 0.7274333336666666
 T1 Si 0.789466669 0.6666666666666666 0.7274333336666666
 T1 Si 0.8772000073333333 0.6666666666666666
  0.9392333426666666
 T1 Si 0.8772000073333333 0.6666666666666666
  0.9392333426666666
 T1 Si 0.789466669 0.6666666666666666 0.9392333426666666
 T1 Si 0.789466669 0.6666666666666666 0.9392333426666666
 T1 Si 0.8772000073333333 0.6666666666666666
  0.7274333336666666
 T1 Si 0.8772000073333333 0.6666666666666666
  0.7274333336666666
 T1 Si 0.7274333336666666 0.789466669 0.6666666666666666
 T1 Si 0.7274333336666666 0.789466669 0.6666666666666666
 T1 Si 0.9392333426666666 0.8772000073333333
  0.6666666666666666
 T1 Si 0.9392333426666666 0.8772000073333333
  0.6666666666666666
 T1 Si 0.9392333426666666 0.789466669 0.6666666666666666
 T1 Si 0.9392333426666666 0.789466669 0.6666666666666666
 T1 Si 0.7274333336666666 0.8772000073333333
  0.6666666666666666
 T1 Si 0.7274333336666666 0.8772000073333333
  0.6666666666666666
 T1 Si 0.7274333336666666 0.6666666666666666
  0.8772000073333333
 T1 Si 0.7274333336666666 0.6666666666666666
  0.8772000073333333
 T1 Si 0.9392333426666666 0.6666666666666666 0.789466669
 T1 Si 0.9392333426666666 0.6666666666666666 0.789466669
 T1 Si 0.9392333426666666 0.6666666666666666
  0.8772000073333333
 T1 Si 0.9392333426666666 0.6666666666666666
  0.8772000073333333
 T1 Si 0.7274333336666666 0.6666666666666666 0.789466669
 T1 Si 0.7274333336666666 0.6666666666666666 0.789466669
 T1 Si 0.6666666666666666 0.789466669 0.9392333426666666
 T1 Si 0.6666666666666666 0.789466669 0.9392333426666666
 T1 Si 0.6666666666666666 0.8772000073333333
  0.7274333336666666
 T1 Si 0.6666666666666666 0.8772000073333333
  0.7274333336666666
 T1 Si 0.6666666666666666 0.789466669 0.7274333336666666
 T1 Si 0.6666666666666666 0.789466669 0.7274333336666666
 T1 Si 0.6666666666666666 0.8772000073333333
  0.9392333426666666
 T1 Si 0.6666666666666666 0.8772000073333333
  0.9392333426666666
 T1 Si 0.789466669 0.7274333336666666 0.6666666666666666
 T1 Si 0.789466669 0.7274333336666666 0.6666666666666666
 T1 Si 0.8772000073333333 0.9392333426666666
  0.6666666666666666
 T1 Si 0.8772000073333333 0.9392333426666666
  0.6666666666666666
 T1 Si 0.789466669 0.9392333426666666 0.6666666666666666
 T1 Si 0.789466669 0.9392333426666666 0.6666666666666666
 T1 Si 0.8772000073333333 0.7274333336666666
  0.6666666666666666
 T1 Si 0.8772000073333333 0.7274333336666666
  0.6666666666666666