data_SOR_p1.cif
File created by Fernando Fajardo-Rojas's code on 2021-09-23 23:47:30.053737
 
###################################################################################
#                                                                                 #
#    Code developed in the CoDeMatE LAB                ######  ######  ##   ##    #
#    Chemical & Biological Engineering Department      #       #       # # # #    #
#    Colorado School of Mines                          #       ######  #  #  #    #
#    Email: jfajardorojas@mines.edu                    #            #  #     #    #
#                                                      ######  ######  #     #    #
#                                                                                 #
###################################################################################
 
_audit_creation_method               JFRcode
_cell_length_a                       62.783100000000005
_cell_length_b                       53.1084
_cell_length_c                       22.7631
_cell_angle_alpha                    90.00000
_cell_angle_beta                     90.00000
_cell_angle_gamma                    90.00000
_cell_volume                         2811.082655139011
 
_symmetry_space_group_name_H-M      Cmmm
_symmetry_Int_Tables_number         65
 
loop_                                 
 _atom_site_label                     
 _atom_site_type_symbol               
 _atom_site_fract_x                   
 _atom_site_fract_y                   
 _atom_site_fract_z                   
Si1 Si 0.08964666733333333 0.028813332333333334
  0.09978000333333333
 Si1 Si 0.243686666 0.304520001 0.23355333
 Si1 Si 0.243686666 0.304520001 0.09978000333333333
 Si1 Si 0.08964666733333333 0.028813332333333334 0.23355333
 Si1 Si 0.243686666 0.028813332333333334 0.23355333
 Si1 Si 0.08964666733333333 0.304520001 0.09978000333333333
 Si1 Si 0.08964666733333333 0.304520001 0.23355333
 Si1 Si 0.243686666 0.028813332333333334 0.09978000333333333
 Si1 Si 0.256313334 0.19547999900000002 0.09978000333333333
 Si1 Si 0.07701999933333332 0.13785333433333333 0.23355333
 Si1 Si 0.07701999933333332 0.13785333433333333
  0.09978000333333333
 Si1 Si 0.256313334 0.19547999900000002 0.23355333
 Si1 Si 0.07701999933333332 0.19547999900000002 0.23355333
 Si1 Si 0.256313334 0.13785333433333333 0.09978000333333333
 Si1 Si 0.256313334 0.13785333433333333 0.23355333
 Si1 Si 0.07701999933333332 0.19547999900000002
  0.09978000333333333
 Si2 Si 0.040239999666666665 0.028766667 0.09977666533333333
 Si2 Si 0.2930933336666667 0.30456666633333335 0.233556668
 Si2 Si 0.2930933336666667 0.30456666633333335
  0.09977666533333333
 Si2 Si 0.040239999666666665 0.028766667 0.233556668
 Si2 Si 0.2930933336666667 0.028766667 0.233556668
 Si2 Si 0.040239999666666665 0.30456666633333335
  0.09977666533333333
 Si2 Si 0.040239999666666665 0.30456666633333335 0.233556668
 Si2 Si 0.2930933336666667 0.028766667 0.09977666533333333
 Si2 Si 0.20690666633333332 0.19543333366666668
  0.09977666533333333
 Si2 Si 0.126426667 0.13789999966666666 0.233556668
 Si2 Si 0.126426667 0.13789999966666666 0.09977666533333333
 Si2 Si 0.20690666633333332 0.19543333366666668 0.233556668
 Si2 Si 0.126426667 0.19543333366666668 0.233556668
 Si2 Si 0.20690666633333332 0.13789999966666666
  0.09977666533333333
 Si2 Si 0.20690666633333332 0.13789999966666666 0.233556668
 Si2 Si 0.126426667 0.19543333366666668 0.09977666533333333
 Si3 Si 0.06314999866666667 0.10192666466666667 0.0
 Si3 Si 0.06314999866666667 0.10192666466666667
  0.3333333333333333
 Si3 Si 0.27018333466666666 0.23140666866666668 0.0
 Si3 Si 0.27018333466666666 0.23140666866666668
  0.3333333333333333
 Si3 Si 0.27018333466666666 0.10192666466666667 0.0
 Si3 Si 0.27018333466666666 0.10192666466666667
  0.3333333333333333
 Si3 Si 0.06314999866666667 0.23140666866666668 0.0
 Si3 Si 0.06314999866666667 0.23140666866666668
  0.3333333333333333
 Si3 Si 0.22981666533333334 0.26859333133333335 0.0
 Si3 Si 0.22981666533333334 0.26859333133333335
  0.3333333333333333
 Si3 Si 0.10351666799999999 0.064740002 0.0
 Si3 Si 0.10351666799999999 0.064740002 0.3333333333333333
 Si3 Si 0.10351666799999999 0.26859333133333335 0.0
 Si3 Si 0.10351666799999999 0.26859333133333335
  0.3333333333333333
 Si3 Si 0.22981666533333334 0.064740002 0.0
 Si3 Si 0.22981666533333334 0.064740002 0.3333333333333333
 Si4 Si 0.023806666333333334 0.06405999766666666 0.0
 Si4 Si 0.023806666333333334 0.06405999766666666
  0.3333333333333333
 Si4 Si 0.30952666700000003 0.26927333566666667 0.0
 Si4 Si 0.30952666700000003 0.26927333566666667
  0.3333333333333333
 Si4 Si 0.30952666700000003 0.06405999766666666 0.0
 Si4 Si 0.30952666700000003 0.06405999766666666
  0.3333333333333333
 Si4 Si 0.023806666333333334 0.26927333566666667 0.0
 Si4 Si 0.023806666333333334 0.26927333566666667
  0.3333333333333333
 Si4 Si 0.190473333 0.23072666433333333 0.0
 Si4 Si 0.190473333 0.23072666433333333 0.3333333333333333
 Si4 Si 0.14286000033333332 0.102606669 0.0
 Si4 Si 0.14286000033333332 0.102606669 0.3333333333333333
 Si4 Si 0.14286000033333332 0.23072666433333333 0.0
 Si4 Si 0.14286000033333332 0.23072666433333333
  0.3333333333333333
 Si4 Si 0.190473333 0.102606669 0.0
 Si4 Si 0.190473333 0.102606669 0.3333333333333333
 O1 O 0.06493666766666667 0.03671333433333333
  0.09588000166666666
 O1 O 0.2683966656666667 0.29661999899999997
  0.23745333166666668
 O1 O 0.2683966656666667 0.29661999899999997
  0.09588000166666666
 O1 O 0.06493666766666667 0.03671333433333333
  0.23745333166666668
 O1 O 0.2683966656666667 0.03671333433333333
  0.23745333166666668
 O1 O 0.06493666766666667 0.29661999899999997
  0.09588000166666666
 O1 O 0.06493666766666667 0.29661999899999997
  0.23745333166666668
 O1 O 0.2683966656666667 0.03671333433333333
  0.09588000166666666
 O1 O 0.23160333433333333 0.203380001 0.09588000166666666
 O1 O 0.101729999 0.12995333233333334 0.23745333166666668
 O1 O 0.101729999 0.12995333233333334 0.09588000166666666
 O1 O 0.23160333433333333 0.203380001 0.23745333166666668
 O1 O 0.101729999 0.203380001 0.23745333166666668
 O1 O 0.23160333433333333 0.12995333233333334
  0.09588000166666666
 O1 O 0.23160333433333333 0.12995333233333334
  0.23745333166666668
 O1 O 0.101729999 0.203380001 0.09588000166666666
 O2 O 0.10317666333333332 0.047153333666666665
  0.057636668333333335
 O2 O 0.23015666999999998 0.2861799996666667 0.275696665
 O2 O 0.23015666999999998 0.2861799996666667
  0.057636668333333335
 O2 O 0.10317666333333332 0.047153333666666665 0.275696665
 O2 O 0.23015666999999998 0.047153333666666665 0.275696665
 O2 O 0.10317666333333332 0.2861799996666667
  0.057636668333333335
 O2 O 0.10317666333333332 0.2861799996666667 0.275696665
 O2 O 0.23015666999999998 0.047153333666666665
  0.057636668333333335
 O2 O 0.26984333 0.21382000033333334 0.057636668333333335
 O2 O 0.06349000333333334 0.119513333 0.275696665
 O2 O 0.06349000333333334 0.119513333 0.057636668333333335
 O2 O 0.26984333 0.21382000033333334 0.275696665
 O2 O 0.06349000333333334 0.21382000033333334 0.275696665
 O2 O 0.26984333 0.119513333 0.057636668333333335
 O2 O 0.26984333 0.119513333 0.275696665
 O2 O 0.06349000333333334 0.21382000033333334
  0.057636668333333335
 O3 O 0.092443337 0.0 0.079156667
 O3 O 0.092443337 0.3333333333333333 0.079156667
 O3 O 0.24088999633333333 0.0 0.2541766663333333
 O3 O 0.24088999633333333 0.3333333333333333
  0.2541766663333333
 O3 O 0.24088999633333333 0.0 0.079156667
 O3 O 0.24088999633333333 0.3333333333333333 0.079156667
 O3 O 0.092443337 0.0 0.2541766663333333
 O3 O 0.092443337 0.3333333333333333 0.2541766663333333
 O3 O 0.25911000366666664 0.16666666666666666 0.079156667
 O3 O 0.07422332966666667 0.16666666666666666
  0.2541766663333333
 O3 O 0.07422332966666667 0.16666666666666666 0.079156667
 O3 O 0.25911000366666664 0.16666666666666666
  0.2541766663333333
 O4 O 0.09764666366666667 0.03172666566666667
  0.16666666666666666
 O4 O 0.23568666966666665 0.30160666766666666
  0.16666666666666666
 O4 O 0.23568666966666665 0.03172666566666667
  0.16666666666666666
 O4 O 0.09764666366666667 0.30160666766666666
  0.16666666666666666
 O4 O 0.2643133303333333 0.19839333233333334
  0.16666666666666666
 O4 O 0.069020003 0.134940001 0.16666666666666666
 O4 O 0.069020003 0.19839333233333334 0.16666666666666666
 O4 O 0.2643133303333333 0.134940001 0.16666666666666666
 O5 O 0.03753 0.0 0.078759998
 O5 O 0.03753 0.3333333333333333 0.078759998
 O5 O 0.29580333333333336 0.0 0.2545733353333333
 O5 O 0.29580333333333336 0.3333333333333333
  0.2545733353333333
 O5 O 0.29580333333333336 0.0 0.078759998
 O5 O 0.29580333333333336 0.3333333333333333 0.078759998
 O5 O 0.03753 0.0 0.2545733353333333
 O5 O 0.03753 0.3333333333333333 0.2545733353333333
 O5 O 0.20419666666666667 0.16666666666666666 0.078759998
 O5 O 0.12913666666666665 0.16666666666666666
  0.2545733353333333
 O5 O 0.12913666666666665 0.16666666666666666 0.078759998
 O5 O 0.20419666666666667 0.16666666666666666
  0.2545733353333333
 O6 O 0.03221333266666667 0.031499999333333334
  0.16666666666666666
 O6 O 0.30112000066666667 0.301833334 0.16666666666666666
 O6 O 0.30112000066666667 0.031499999333333334
  0.16666666666666666
 O6 O 0.03221333266666667 0.301833334 0.16666666666666666
 O6 O 0.19887999933333333 0.198166666 0.16666666666666666
 O6 O 0.134453334 0.13516666733333335 0.16666666666666666
 O6 O 0.134453334 0.198166666 0.16666666666666666
 O6 O 0.19887999933333333 0.13516666733333335
  0.16666666666666666
 O7 O 0.02645999933333333 0.04690666499999999
  0.057820002333333335
 O7 O 0.306873334 0.28642666833333336 0.27551333100000003
 O7 O 0.306873334 0.28642666833333336 0.057820002333333335
 O7 O 0.02645999933333333 0.04690666499999999
  0.27551333100000003
 O7 O 0.306873334 0.04690666499999999 0.27551333100000003
 O7 O 0.02645999933333333 0.28642666833333336
  0.057820002333333335
 O7 O 0.02645999933333333 0.28642666833333336
  0.27551333100000003
 O7 O 0.306873334 0.04690666499999999 0.057820002333333335
 O7 O 0.19312666599999997 0.21357333166666667
  0.057820002333333335
 O7 O 0.14020666733333334 0.11976000166666667
  0.27551333100000003
 O7 O 0.14020666733333334 0.11976000166666667
  0.057820002333333335
 O7 O 0.19312666599999997 0.21357333166666667
  0.27551333100000003
 O7 O 0.14020666733333334 0.21357333166666667
  0.27551333100000003
 O7 O 0.19312666599999997 0.11976000166666667
  0.057820002333333335
 O7 O 0.19312666599999997 0.11976000166666667
  0.27551333100000003
 O7 O 0.14020666733333334 0.21357333166666667
  0.057820002333333335
 O8 O 0.08333333333333333 0.08333333333333333 0.0
 O8 O 0.08333333333333333 0.08333333333333333
  0.3333333333333333
 O8 O 0.25 0.25 0.0
 O8 O 0.25 0.25 0.3333333333333333
 O8 O 0.25 0.08333333333333333 0.0
 O8 O 0.25 0.08333333333333333 0.3333333333333333
 O8 O 0.08333333333333333 0.25 0.0
 O8 O 0.08333333333333333 0.25 0.3333333333333333
 O9 O 0.04121666633333333 0.086256663 0.0
 O9 O 0.04121666633333333 0.086256663 0.3333333333333333
 O9 O 0.292116667 0.24707667033333333 0.0
 O9 O 0.292116667 0.24707667033333333 0.3333333333333333
 O9 O 0.292116667 0.086256663 0.0
 O9 O 0.292116667 0.086256663 0.3333333333333333
 O9 O 0.04121666633333333 0.24707667033333333 0.0
 O9 O 0.04121666633333333 0.24707667033333333
  0.3333333333333333
 O9 O 0.20788333299999998 0.2529233296666667 0.0
 O9 O 0.20788333299999998 0.2529233296666667
  0.3333333333333333
 O9 O 0.12545000033333334 0.08041000366666666 0.0
 O9 O 0.12545000033333334 0.08041000366666666
  0.3333333333333333
 O9 O 0.12545000033333334 0.2529233296666667 0.0
 O9 O 0.12545000033333334 0.2529233296666667
  0.3333333333333333
 O9 O 0.20788333299999998 0.08041000366666666 0.0
 O9 O 0.20788333299999998 0.08041000366666666
  0.3333333333333333
 O10 O 0.0 0.07543333366666667 0.0
 O10 O 0.0 0.07543333366666667 0.3333333333333333
 O10 O 0.3333333333333333 0.07543333366666667 0.0
 O10 O 0.3333333333333333 0.07543333366666667
  0.3333333333333333
 O10 O 0.0 0.25789999966666666 0.0
 O10 O 0.0 0.25789999966666666 0.3333333333333333
 O10 O 0.3333333333333333 0.25789999966666666 0.0
 O10 O 0.3333333333333333 0.25789999966666666
  0.3333333333333333
 O10 O 0.16666666666666666 0.24210000033333334 0.0
 O10 O 0.16666666666666666 0.24210000033333334
  0.3333333333333333
 O10 O 0.16666666666666666 0.09123333300000001 0.0
 O10 O 0.16666666666666666 0.09123333300000001
  0.3333333333333333
 O2 O 0.06349000333333334 0.119513333 -0.057636668333333335
 O2 O 0.06349000333333334 0.119513333 0.3909700016666667
 O2 O 0.26984333 0.21382000033333334 -0.057636668333333335
 O2 O 0.26984333 0.21382000033333334 0.3909700016666667
 O2 O 0.26984333 0.119513333 -0.057636668333333335
 O2 O 0.26984333 0.119513333 0.3909700016666667
 O2 O 0.06349000333333334 0.21382000033333334
  -0.057636668333333335
 O2 O 0.06349000333333334 0.21382000033333334
  0.3909700016666667
 O2 O 0.23015666999999998 0.2861799996666667
  -0.057636668333333335
 O2 O 0.23015666999999998 0.2861799996666667
  0.3909700016666667
 O2 O 0.10317666333333332 0.047153333666666665
  -0.057636668333333335
 O2 O 0.10317666333333332 0.047153333666666665
  0.3909700016666667
 O2 O 0.10317666333333332 0.2861799996666667
  -0.057636668333333335
 O2 O 0.10317666333333332 0.2861799996666667
  0.3909700016666667
 O2 O 0.23015666999999998 0.047153333666666665
  -0.057636668333333335
 O2 O 0.23015666999999998 0.047153333666666665
  0.3909700016666667
 O7 O 0.02645999933333333 0.04690666499999999
  -0.057820002333333335
 O7 O 0.02645999933333333 0.04690666499999999
  0.3911533356666667
 O7 O 0.306873334 0.28642666833333336 -0.057820002333333335
 O7 O 0.306873334 0.28642666833333336 0.3911533356666667
 O7 O 0.306873334 0.04690666499999999 -0.057820002333333335
 O7 O 0.306873334 0.04690666499999999 0.3911533356666667
 O7 O 0.02645999933333333 0.28642666833333336
  -0.057820002333333335
 O7 O 0.02645999933333333 0.28642666833333336
  0.3911533356666667
 O7 O 0.19312666599999997 0.21357333166666667
  -0.057820002333333335
 O7 O 0.19312666599999997 0.21357333166666667
  0.3911533356666667
 O7 O 0.14020666733333334 0.11976000166666667
  -0.057820002333333335
 O7 O 0.14020666733333334 0.11976000166666667
  0.3911533356666667
 O7 O 0.14020666733333334 0.21357333166666667
  -0.057820002333333335
 O7 O 0.14020666733333334 0.21357333166666667
  0.3911533356666667
 O7 O 0.19312666599999997 0.11976000166666667
  -0.057820002333333335
 O7 O 0.19312666599999997 0.11976000166666667
  0.3911533356666667
 Si1 Si 0.42298000066666663 0.028813332333333334
  0.09978000333333333
 Si1 Si 0.5770199993333334 0.304520001 0.23355333
 Si1 Si 0.5770199993333334 0.304520001 0.09978000333333333
 Si1 Si 0.42298000066666663 0.028813332333333334 0.23355333
 Si1 Si 0.5770199993333334 0.028813332333333334 0.23355333
 Si1 Si 0.42298000066666663 0.304520001 0.09978000333333333
 Si1 Si 0.42298000066666663 0.304520001 0.23355333
 Si1 Si 0.5770199993333334 0.028813332333333334
  0.09978000333333333
 Si1 Si 0.5896466673333334 0.19547999900000002
  0.09978000333333333
 Si1 Si 0.4103533326666666 0.13785333433333333 0.23355333
 Si1 Si 0.4103533326666666 0.13785333433333333
  0.09978000333333333
 Si1 Si 0.5896466673333334 0.19547999900000002 0.23355333
 Si1 Si 0.4103533326666666 0.19547999900000002 0.23355333
 Si1 Si 0.5896466673333334 0.13785333433333333
  0.09978000333333333
 Si1 Si 0.5896466673333334 0.13785333433333333 0.23355333
 Si1 Si 0.4103533326666666 0.19547999900000002
  0.09978000333333333
 Si2 Si 0.37357333299999995 0.028766667 0.09977666533333333
 Si2 Si 0.626426667 0.30456666633333335 0.233556668
 Si2 Si 0.626426667 0.30456666633333335 0.09977666533333333
 Si2 Si 0.37357333299999995 0.028766667 0.233556668
 Si2 Si 0.626426667 0.028766667 0.233556668
 Si2 Si 0.37357333299999995 0.30456666633333335
  0.09977666533333333
 Si2 Si 0.37357333299999995 0.30456666633333335 0.233556668
 Si2 Si 0.626426667 0.028766667 0.09977666533333333
 Si2 Si 0.5402399996666667 0.19543333366666668
  0.09977666533333333
 Si2 Si 0.4597600003333333 0.13789999966666666 0.233556668
 Si2 Si 0.4597600003333333 0.13789999966666666
  0.09977666533333333
 Si2 Si 0.5402399996666667 0.19543333366666668 0.233556668
 Si2 Si 0.4597600003333333 0.19543333366666668 0.233556668
 Si2 Si 0.5402399996666667 0.13789999966666666
  0.09977666533333333
 Si2 Si 0.5402399996666667 0.13789999966666666 0.233556668
 Si2 Si 0.4597600003333333 0.19543333366666668
  0.09977666533333333
 Si3 Si 0.39648333199999997 0.10192666466666667 0.0
 Si3 Si 0.39648333199999997 0.10192666466666667
  0.3333333333333333
 Si3 Si 0.6035166679999999 0.23140666866666668 0.0
 Si3 Si 0.6035166679999999 0.23140666866666668
  0.3333333333333333
 Si3 Si 0.6035166679999999 0.10192666466666667 0.0
 Si3 Si 0.6035166679999999 0.10192666466666667
  0.3333333333333333
 Si3 Si 0.39648333199999997 0.23140666866666668 0.0
 Si3 Si 0.39648333199999997 0.23140666866666668
  0.3333333333333333
 Si3 Si 0.5631499986666666 0.26859333133333335 0.0
 Si3 Si 0.5631499986666666 0.26859333133333335
  0.3333333333333333
 Si3 Si 0.4368500013333333 0.064740002 0.0
 Si3 Si 0.4368500013333333 0.064740002 0.3333333333333333
 Si3 Si 0.4368500013333333 0.26859333133333335 0.0
 Si3 Si 0.4368500013333333 0.26859333133333335
  0.3333333333333333
 Si3 Si 0.5631499986666666 0.064740002 0.0
 Si3 Si 0.5631499986666666 0.064740002 0.3333333333333333
 Si4 Si 0.35713999966666665 0.06405999766666666 0.0
 Si4 Si 0.35713999966666665 0.06405999766666666
  0.3333333333333333
 Si4 Si 0.6428600003333333 0.26927333566666667 0.0
 Si4 Si 0.6428600003333333 0.26927333566666667
  0.3333333333333333
 Si4 Si 0.6428600003333333 0.06405999766666666 0.0
 Si4 Si 0.6428600003333333 0.06405999766666666
  0.3333333333333333
 Si4 Si 0.35713999966666665 0.26927333566666667 0.0
 Si4 Si 0.35713999966666665 0.26927333566666667
  0.3333333333333333
 Si4 Si 0.5238066663333333 0.23072666433333333 0.0
 Si4 Si 0.5238066663333333 0.23072666433333333
  0.3333333333333333
 Si4 Si 0.4761933336666666 0.102606669 0.0
 Si4 Si 0.4761933336666666 0.102606669 0.3333333333333333
 Si4 Si 0.4761933336666666 0.23072666433333333 0.0
 Si4 Si 0.4761933336666666 0.23072666433333333
  0.3333333333333333
 Si4 Si 0.5238066663333333 0.102606669 0.0
 Si4 Si 0.5238066663333333 0.102606669 0.3333333333333333
 O1 O 0.398270001 0.03671333433333333 0.09588000166666666
 O1 O 0.601729999 0.29661999899999997 0.23745333166666668
 O1 O 0.601729999 0.29661999899999997 0.09588000166666666
 O1 O 0.398270001 0.03671333433333333 0.23745333166666668
 O1 O 0.601729999 0.03671333433333333 0.23745333166666668
 O1 O 0.398270001 0.29661999899999997 0.09588000166666666
 O1 O 0.398270001 0.29661999899999997 0.23745333166666668
 O1 O 0.601729999 0.03671333433333333 0.09588000166666666
 O1 O 0.5649366676666666 0.203380001 0.09588000166666666
 O1 O 0.43506333233333333 0.12995333233333334
  0.23745333166666668
 O1 O 0.43506333233333333 0.12995333233333334
  0.09588000166666666
 O1 O 0.5649366676666666 0.203380001 0.23745333166666668
 O1 O 0.43506333233333333 0.203380001 0.23745333166666668
 O1 O 0.5649366676666666 0.12995333233333334
  0.09588000166666666
 O1 O 0.5649366676666666 0.12995333233333334
  0.23745333166666668
 O1 O 0.43506333233333333 0.203380001 0.09588000166666666
 O2 O 0.4365099966666666 0.047153333666666665
  0.057636668333333335
 O2 O 0.5634900033333333 0.2861799996666667 0.275696665
 O2 O 0.5634900033333333 0.2861799996666667
  0.057636668333333335
 O2 O 0.4365099966666666 0.047153333666666665 0.275696665
 O2 O 0.5634900033333333 0.047153333666666665 0.275696665
 O2 O 0.4365099966666666 0.2861799996666667
  0.057636668333333335
 O2 O 0.4365099966666666 0.2861799996666667 0.275696665
 O2 O 0.5634900033333333 0.047153333666666665
  0.057636668333333335
 O2 O 0.6031766633333333 0.21382000033333334
  0.057636668333333335
 O2 O 0.39682333666666664 0.119513333 0.275696665
 O2 O 0.39682333666666664 0.119513333 0.057636668333333335
 O2 O 0.6031766633333333 0.21382000033333334 0.275696665
 O2 O 0.39682333666666664 0.21382000033333334 0.275696665
 O2 O 0.6031766633333333 0.119513333 0.057636668333333335
 O2 O 0.6031766633333333 0.119513333 0.275696665
 O2 O 0.39682333666666664 0.21382000033333334
  0.057636668333333335
 O3 O 0.42577667033333333 0.0 0.079156667
 O3 O 0.42577667033333333 0.3333333333333333 0.079156667
 O3 O 0.5742233296666667 0.0 0.2541766663333333
 O3 O 0.5742233296666667 0.3333333333333333 0.2541766663333333
 O3 O 0.5742233296666667 0.0 0.079156667
 O3 O 0.5742233296666667 0.3333333333333333 0.079156667
 O3 O 0.42577667033333333 0.0 0.2541766663333333
 O3 O 0.42577667033333333 0.3333333333333333
  0.2541766663333333
 O3 O 0.592443337 0.16666666666666666 0.079156667
 O3 O 0.407556663 0.16666666666666666 0.2541766663333333
 O3 O 0.407556663 0.16666666666666666 0.079156667
 O3 O 0.592443337 0.16666666666666666 0.2541766663333333
 O4 O 0.430979997 0.03172666566666667 0.16666666666666666
 O4 O 0.569020003 0.30160666766666666 0.16666666666666666
 O4 O 0.569020003 0.03172666566666667 0.16666666666666666
 O4 O 0.430979997 0.30160666766666666 0.16666666666666666
 O4 O 0.5976466636666666 0.19839333233333334
  0.16666666666666666
 O4 O 0.4023533363333333 0.134940001 0.16666666666666666
 O4 O 0.4023533363333333 0.19839333233333334
  0.16666666666666666
 O4 O 0.5976466636666666 0.134940001 0.16666666666666666
 O5 O 0.3708633333333333 0.0 0.078759998
 O5 O 0.3708633333333333 0.3333333333333333 0.078759998
 O5 O 0.6291366666666667 0.0 0.2545733353333333
 O5 O 0.6291366666666667 0.3333333333333333 0.2545733353333333
 O5 O 0.6291366666666667 0.0 0.078759998
 O5 O 0.6291366666666667 0.3333333333333333 0.078759998
 O5 O 0.3708633333333333 0.0 0.2545733353333333
 O5 O 0.3708633333333333 0.3333333333333333 0.2545733353333333
 O5 O 0.53753 0.16666666666666666 0.078759998
 O5 O 0.46246999999999994 0.16666666666666666
  0.2545733353333333
 O5 O 0.46246999999999994 0.16666666666666666 0.078759998
 O5 O 0.53753 0.16666666666666666 0.2545733353333333
 O6 O 0.36554666599999996 0.031499999333333334
  0.16666666666666666
 O6 O 0.634453334 0.301833334 0.16666666666666666
 O6 O 0.634453334 0.031499999333333334 0.16666666666666666
 O6 O 0.36554666599999996 0.301833334 0.16666666666666666
 O6 O 0.5322133326666667 0.198166666 0.16666666666666666
 O6 O 0.4677866673333333 0.13516666733333335
  0.16666666666666666
 O6 O 0.4677866673333333 0.198166666 0.16666666666666666
 O6 O 0.5322133326666667 0.13516666733333335
  0.16666666666666666
 O7 O 0.35979333266666663 0.04690666499999999
  0.057820002333333335
 O7 O 0.6402066673333333 0.28642666833333336
  0.27551333100000003
 O7 O 0.6402066673333333 0.28642666833333336
  0.057820002333333335
 O7 O 0.35979333266666663 0.04690666499999999
  0.27551333100000003
 O7 O 0.6402066673333333 0.04690666499999999
  0.27551333100000003
 O7 O 0.35979333266666663 0.28642666833333336
  0.057820002333333335
 O7 O 0.35979333266666663 0.28642666833333336
  0.27551333100000003
 O7 O 0.6402066673333333 0.04690666499999999
  0.057820002333333335
 O7 O 0.5264599993333333 0.21357333166666667
  0.057820002333333335
 O7 O 0.4735400006666667 0.11976000166666667
  0.27551333100000003
 O7 O 0.4735400006666667 0.11976000166666667
  0.057820002333333335
 O7 O 0.5264599993333333 0.21357333166666667
  0.27551333100000003
 O7 O 0.4735400006666667 0.21357333166666667
  0.27551333100000003
 O7 O 0.5264599993333333 0.11976000166666667
  0.057820002333333335
 O7 O 0.5264599993333333 0.11976000166666667
  0.27551333100000003
 O7 O 0.4735400006666667 0.21357333166666667
  0.057820002333333335
 O8 O 0.41666666666666663 0.08333333333333333 0.0
 O8 O 0.41666666666666663 0.08333333333333333
  0.3333333333333333
 O8 O 0.5833333333333333 0.25 0.0
 O8 O 0.5833333333333333 0.25 0.3333333333333333
 O8 O 0.5833333333333333 0.08333333333333333 0.0
 O8 O 0.5833333333333333 0.08333333333333333
  0.3333333333333333
 O8 O 0.41666666666666663 0.25 0.0
 O8 O 0.41666666666666663 0.25 0.3333333333333333
 O9 O 0.37454999966666663 0.086256663 0.0
 O9 O 0.37454999966666663 0.086256663 0.3333333333333333
 O9 O 0.6254500003333333 0.24707667033333333 0.0
 O9 O 0.6254500003333333 0.24707667033333333
  0.3333333333333333
 O9 O 0.6254500003333333 0.086256663 0.0
 O9 O 0.6254500003333333 0.086256663 0.3333333333333333
 O9 O 0.37454999966666663 0.24707667033333333 0.0
 O9 O 0.37454999966666663 0.24707667033333333
  0.3333333333333333
 O9 O 0.5412166663333333 0.2529233296666667 0.0
 O9 O 0.5412166663333333 0.2529233296666667 0.3333333333333333
 O9 O 0.4587833336666667 0.08041000366666666 0.0
 O9 O 0.4587833336666667 0.08041000366666666
  0.3333333333333333
 O9 O 0.4587833336666667 0.2529233296666667 0.0
 O9 O 0.4587833336666667 0.2529233296666667 0.3333333333333333
 O9 O 0.5412166663333333 0.08041000366666666 0.0
 O9 O 0.5412166663333333 0.08041000366666666
  0.3333333333333333
 O10 O 0.3333333333333333 0.07543333366666667 0.0
 O10 O 0.3333333333333333 0.07543333366666667
  0.3333333333333333
 O10 O 0.6666666666666666 0.07543333366666667 0.0
 O10 O 0.6666666666666666 0.07543333366666667
  0.3333333333333333
 O10 O 0.3333333333333333 0.25789999966666666 0.0
 O10 O 0.3333333333333333 0.25789999966666666
  0.3333333333333333
 O10 O 0.6666666666666666 0.25789999966666666 0.0
 O10 O 0.6666666666666666 0.25789999966666666
  0.3333333333333333
 O10 O 0.5 0.24210000033333334 0.0
 O10 O 0.5 0.24210000033333334 0.3333333333333333
 O10 O 0.5 0.09123333300000001 0.0
 O10 O 0.5 0.09123333300000001 0.3333333333333333
 O2 O 0.39682333666666664 0.119513333 -0.057636668333333335
 O2 O 0.39682333666666664 0.119513333 0.3909700016666667
 O2 O 0.6031766633333333 0.21382000033333334
  -0.057636668333333335
 O2 O 0.6031766633333333 0.21382000033333334
  0.3909700016666667
 O2 O 0.6031766633333333 0.119513333 -0.057636668333333335
 O2 O 0.6031766633333333 0.119513333 0.3909700016666667
 O2 O 0.39682333666666664 0.21382000033333334
  -0.057636668333333335
 O2 O 0.39682333666666664 0.21382000033333334
  0.3909700016666667
 O2 O 0.5634900033333333 0.2861799996666667
  -0.057636668333333335
 O2 O 0.5634900033333333 0.2861799996666667 0.3909700016666667
 O2 O 0.4365099966666666 0.047153333666666665
  -0.057636668333333335
 O2 O 0.4365099966666666 0.047153333666666665
  0.3909700016666667
 O2 O 0.4365099966666666 0.2861799996666667
  -0.057636668333333335
 O2 O 0.4365099966666666 0.2861799996666667 0.3909700016666667
 O2 O 0.5634900033333333 0.047153333666666665
  -0.057636668333333335
 O2 O 0.5634900033333333 0.047153333666666665
  0.3909700016666667
 O7 O 0.35979333266666663 0.04690666499999999
  -0.057820002333333335
 O7 O 0.35979333266666663 0.04690666499999999
  0.3911533356666667
 O7 O 0.6402066673333333 0.28642666833333336
  -0.057820002333333335
 O7 O 0.6402066673333333 0.28642666833333336
  0.3911533356666667
 O7 O 0.6402066673333333 0.04690666499999999
  -0.057820002333333335
 O7 O 0.6402066673333333 0.04690666499999999
  0.3911533356666667
 O7 O 0.35979333266666663 0.28642666833333336
  -0.057820002333333335
 O7 O 0.35979333266666663 0.28642666833333336
  0.3911533356666667
 O7 O 0.5264599993333333 0.21357333166666667
  -0.057820002333333335
 O7 O 0.5264599993333333 0.21357333166666667
  0.3911533356666667
 O7 O 0.4735400006666667 0.11976000166666667
  -0.057820002333333335
 O7 O 0.4735400006666667 0.11976000166666667
  0.3911533356666667
 O7 O 0.4735400006666667 0.21357333166666667
  -0.057820002333333335
 O7 O 0.4735400006666667 0.21357333166666667
  0.3911533356666667
 O7 O 0.5264599993333333 0.11976000166666667
  -0.057820002333333335
 O7 O 0.5264599993333333 0.11976000166666667
  0.3911533356666667
 Si1 Si 0.7563133339999999 0.028813332333333334
  0.09978000333333333
 Si1 Si 0.9103533326666666 0.304520001 0.23355333
 Si1 Si 0.9103533326666666 0.304520001 0.09978000333333333
 Si1 Si 0.7563133339999999 0.028813332333333334 0.23355333
 Si1 Si 0.9103533326666666 0.028813332333333334 0.23355333
 Si1 Si 0.7563133339999999 0.304520001 0.09978000333333333
 Si1 Si 0.7563133339999999 0.304520001 0.23355333
 Si1 Si 0.9103533326666666 0.028813332333333334
  0.09978000333333333
 Si1 Si 0.9229800006666666 0.19547999900000002
  0.09978000333333333
 Si1 Si 0.7436866659999999 0.13785333433333333 0.23355333
 Si1 Si 0.7436866659999999 0.13785333433333333
  0.09978000333333333
 Si1 Si 0.9229800006666666 0.19547999900000002 0.23355333
 Si1 Si 0.7436866659999999 0.19547999900000002 0.23355333
 Si1 Si 0.9229800006666666 0.13785333433333333
  0.09978000333333333
 Si1 Si 0.9229800006666666 0.13785333433333333 0.23355333
 Si1 Si 0.7436866659999999 0.19547999900000002
  0.09978000333333333
 Si2 Si 0.7069066663333332 0.028766667 0.09977666533333333
 Si2 Si 0.9597600003333333 0.30456666633333335 0.233556668
 Si2 Si 0.9597600003333333 0.30456666633333335
  0.09977666533333333
 Si2 Si 0.7069066663333332 0.028766667 0.233556668
 Si2 Si 0.9597600003333333 0.028766667 0.233556668
 Si2 Si 0.7069066663333332 0.30456666633333335
  0.09977666533333333
 Si2 Si 0.7069066663333332 0.30456666633333335 0.233556668
 Si2 Si 0.9597600003333333 0.028766667 0.09977666533333333
 Si2 Si 0.873573333 0.19543333366666668 0.09977666533333333
 Si2 Si 0.7930933336666666 0.13789999966666666 0.233556668
 Si2 Si 0.7930933336666666 0.13789999966666666
  0.09977666533333333
 Si2 Si 0.873573333 0.19543333366666668 0.233556668
 Si2 Si 0.7930933336666666 0.19543333366666668 0.233556668
 Si2 Si 0.873573333 0.13789999966666666 0.09977666533333333
 Si2 Si 0.873573333 0.13789999966666666 0.233556668
 Si2 Si 0.7930933336666666 0.19543333366666668
  0.09977666533333333
 Si3 Si 0.7298166653333333 0.10192666466666667 0.0
 Si3 Si 0.7298166653333333 0.10192666466666667
  0.3333333333333333
 Si3 Si 0.9368500013333332 0.23140666866666668 0.0
 Si3 Si 0.9368500013333332 0.23140666866666668
  0.3333333333333333
 Si3 Si 0.9368500013333332 0.10192666466666667 0.0
 Si3 Si 0.9368500013333332 0.10192666466666667
  0.3333333333333333
 Si3 Si 0.7298166653333333 0.23140666866666668 0.0
 Si3 Si 0.7298166653333333 0.23140666866666668
  0.3333333333333333
 Si3 Si 0.8964833319999999 0.26859333133333335 0.0
 Si3 Si 0.8964833319999999 0.26859333133333335
  0.3333333333333333
 Si3 Si 0.7701833346666667 0.064740002 0.0
 Si3 Si 0.7701833346666667 0.064740002 0.3333333333333333
 Si3 Si 0.7701833346666667 0.26859333133333335 0.0
 Si3 Si 0.7701833346666667 0.26859333133333335
  0.3333333333333333
 Si3 Si 0.8964833319999999 0.064740002 0.0
 Si3 Si 0.8964833319999999 0.064740002 0.3333333333333333
 Si4 Si 0.6904733329999999 0.06405999766666666 0.0
 Si4 Si 0.6904733329999999 0.06405999766666666
  0.3333333333333333
 Si4 Si 0.9761933336666666 0.26927333566666667 0.0
 Si4 Si 0.9761933336666666 0.26927333566666667
  0.3333333333333333
 Si4 Si 0.9761933336666666 0.06405999766666666 0.0
 Si4 Si 0.9761933336666666 0.06405999766666666
  0.3333333333333333
 Si4 Si 0.6904733329999999 0.26927333566666667 0.0
 Si4 Si 0.6904733329999999 0.26927333566666667
  0.3333333333333333
 Si4 Si 0.8571399996666667 0.23072666433333333 0.0
 Si4 Si 0.8571399996666667 0.23072666433333333
  0.3333333333333333
 Si4 Si 0.8095266669999999 0.102606669 0.0
 Si4 Si 0.8095266669999999 0.102606669 0.3333333333333333
 Si4 Si 0.8095266669999999 0.23072666433333333 0.0
 Si4 Si 0.8095266669999999 0.23072666433333333
  0.3333333333333333
 Si4 Si 0.8571399996666667 0.102606669 0.0
 Si4 Si 0.8571399996666667 0.102606669 0.3333333333333333
 O1 O 0.7316033343333332 0.03671333433333333
  0.09588000166666666
 O1 O 0.9350633323333333 0.29661999899999997
  0.23745333166666668
 O1 O 0.9350633323333333 0.29661999899999997
  0.09588000166666666
 O1 O 0.7316033343333332 0.03671333433333333
  0.23745333166666668
 O1 O 0.9350633323333333 0.03671333433333333
  0.23745333166666668
 O1 O 0.7316033343333332 0.29661999899999997
  0.09588000166666666
 O1 O 0.7316033343333332 0.29661999899999997
  0.23745333166666668
 O1 O 0.9350633323333333 0.03671333433333333
  0.09588000166666666
 O1 O 0.898270001 0.203380001 0.09588000166666666
 O1 O 0.7683966656666666 0.12995333233333334
  0.23745333166666668
 O1 O 0.7683966656666666 0.12995333233333334
  0.09588000166666666
 O1 O 0.898270001 0.203380001 0.23745333166666668
 O1 O 0.7683966656666666 0.203380001 0.23745333166666668
 O1 O 0.898270001 0.12995333233333334 0.09588000166666666
 O1 O 0.898270001 0.12995333233333334 0.23745333166666668
 O1 O 0.7683966656666666 0.203380001 0.09588000166666666
 O2 O 0.7698433299999999 0.047153333666666665
  0.057636668333333335
 O2 O 0.8968233366666667 0.2861799996666667 0.275696665
 O2 O 0.8968233366666667 0.2861799996666667
  0.057636668333333335
 O2 O 0.7698433299999999 0.047153333666666665 0.275696665
 O2 O 0.8968233366666667 0.047153333666666665 0.275696665
 O2 O 0.7698433299999999 0.2861799996666667
  0.057636668333333335
 O2 O 0.7698433299999999 0.2861799996666667 0.275696665
 O2 O 0.8968233366666667 0.047153333666666665
  0.057636668333333335
 O2 O 0.9365099966666666 0.21382000033333334
  0.057636668333333335
 O2 O 0.73015667 0.119513333 0.275696665
 O2 O 0.73015667 0.119513333 0.057636668333333335
 O2 O 0.9365099966666666 0.21382000033333334 0.275696665
 O2 O 0.73015667 0.21382000033333334 0.275696665
 O2 O 0.9365099966666666 0.119513333 0.057636668333333335
 O2 O 0.9365099966666666 0.119513333 0.275696665
 O2 O 0.73015667 0.21382000033333334 0.057636668333333335
 O3 O 0.7591100036666667 0.0 0.079156667
 O3 O 0.7591100036666667 0.3333333333333333 0.079156667
 O3 O 0.907556663 0.0 0.2541766663333333
 O3 O 0.907556663 0.3333333333333333 0.2541766663333333
 O3 O 0.907556663 0.0 0.079156667
 O3 O 0.907556663 0.3333333333333333 0.079156667
 O3 O 0.7591100036666667 0.0 0.2541766663333333
 O3 O 0.7591100036666667 0.3333333333333333 0.2541766663333333
 O3 O 0.9257766703333332 0.16666666666666666 0.079156667
 O3 O 0.7408899963333333 0.16666666666666666
  0.2541766663333333
 O3 O 0.7408899963333333 0.16666666666666666 0.079156667
 O3 O 0.9257766703333332 0.16666666666666666
  0.2541766663333333
 O4 O 0.7643133303333334 0.03172666566666667
  0.16666666666666666
 O4 O 0.9023533363333334 0.30160666766666666
  0.16666666666666666
 O4 O 0.9023533363333334 0.03172666566666667
  0.16666666666666666
 O4 O 0.7643133303333334 0.30160666766666666
  0.16666666666666666
 O4 O 0.9309799969999999 0.19839333233333334
  0.16666666666666666
 O4 O 0.7356866696666666 0.134940001 0.16666666666666666
 O4 O 0.7356866696666666 0.19839333233333334
  0.16666666666666666
 O4 O 0.9309799969999999 0.134940001 0.16666666666666666
 O5 O 0.7041966666666666 0.0 0.078759998
 O5 O 0.7041966666666666 0.3333333333333333 0.078759998
 O5 O 0.9624699999999999 0.0 0.2545733353333333
 O5 O 0.9624699999999999 0.3333333333333333 0.2545733353333333
 O5 O 0.9624699999999999 0.0 0.078759998
 O5 O 0.9624699999999999 0.3333333333333333 0.078759998
 O5 O 0.7041966666666666 0.0 0.2545733353333333
 O5 O 0.7041966666666666 0.3333333333333333 0.2545733353333333
 O5 O 0.8708633333333333 0.16666666666666666 0.078759998
 O5 O 0.7958033333333332 0.16666666666666666
  0.2545733353333333
 O5 O 0.7958033333333332 0.16666666666666666 0.078759998
 O5 O 0.8708633333333333 0.16666666666666666
  0.2545733353333333
 O6 O 0.6988799993333332 0.031499999333333334
  0.16666666666666666
 O6 O 0.9677866673333333 0.301833334 0.16666666666666666
 O6 O 0.9677866673333333 0.031499999333333334
  0.16666666666666666
 O6 O 0.6988799993333332 0.301833334 0.16666666666666666
 O6 O 0.865546666 0.198166666 0.16666666666666666
 O6 O 0.8011200006666666 0.13516666733333335
  0.16666666666666666
 O6 O 0.8011200006666666 0.198166666 0.16666666666666666
 O6 O 0.865546666 0.13516666733333335 0.16666666666666666
 O7 O 0.693126666 0.04690666499999999 0.057820002333333335
 O7 O 0.9735400006666666 0.28642666833333336
  0.27551333100000003
 O7 O 0.9735400006666666 0.28642666833333336
  0.057820002333333335
 O7 O 0.693126666 0.04690666499999999 0.27551333100000003
 O7 O 0.9735400006666666 0.04690666499999999
  0.27551333100000003
 O7 O 0.693126666 0.28642666833333336 0.057820002333333335
 O7 O 0.693126666 0.28642666833333336 0.27551333100000003
 O7 O 0.9735400006666666 0.04690666499999999
  0.057820002333333335
 O7 O 0.8597933326666667 0.21357333166666667
  0.057820002333333335
 O7 O 0.806873334 0.11976000166666667 0.27551333100000003
 O7 O 0.806873334 0.11976000166666667 0.057820002333333335
 O7 O 0.8597933326666667 0.21357333166666667
  0.27551333100000003
 O7 O 0.806873334 0.21357333166666667 0.27551333100000003
 O7 O 0.8597933326666667 0.11976000166666667
  0.057820002333333335
 O7 O 0.8597933326666667 0.11976000166666667
  0.27551333100000003
 O7 O 0.806873334 0.21357333166666667 0.057820002333333335
 O8 O 0.75 0.08333333333333333 0.0
 O8 O 0.75 0.08333333333333333 0.3333333333333333
 O8 O 0.9166666666666665 0.25 0.0
 O8 O 0.9166666666666665 0.25 0.3333333333333333
 O8 O 0.9166666666666665 0.08333333333333333 0.0
 O8 O 0.9166666666666665 0.08333333333333333
  0.3333333333333333
 O8 O 0.75 0.25 0.0
 O8 O 0.75 0.25 0.3333333333333333
 O9 O 0.707883333 0.086256663 0.0
 O9 O 0.707883333 0.086256663 0.3333333333333333
 O9 O 0.9587833336666667 0.24707667033333333 0.0
 O9 O 0.9587833336666667 0.24707667033333333
  0.3333333333333333
 O9 O 0.9587833336666667 0.086256663 0.0
 O9 O 0.9587833336666667 0.086256663 0.3333333333333333
 O9 O 0.707883333 0.24707667033333333 0.0
 O9 O 0.707883333 0.24707667033333333 0.3333333333333333
 O9 O 0.8745499996666666 0.2529233296666667 0.0
 O9 O 0.8745499996666666 0.2529233296666667 0.3333333333333333
 O9 O 0.7921166669999999 0.08041000366666666 0.0
 O9 O 0.7921166669999999 0.08041000366666666
  0.3333333333333333
 O9 O 0.7921166669999999 0.2529233296666667 0.0
 O9 O 0.7921166669999999 0.2529233296666667 0.3333333333333333
 O9 O 0.8745499996666666 0.08041000366666666 0.0
 O9 O 0.8745499996666666 0.08041000366666666
  0.3333333333333333
 O10 O 0.6666666666666666 0.07543333366666667 0.0
 O10 O 0.6666666666666666 0.07543333366666667
  0.3333333333333333
 O10 O 1.0 0.07543333366666667 0.0
 O10 O 1.0 0.07543333366666667 0.3333333333333333
 O10 O 0.6666666666666666 0.25789999966666666 0.0
 O10 O 0.6666666666666666 0.25789999966666666
  0.3333333333333333
 O10 O 1.0 0.25789999966666666 0.0
 O10 O 1.0 0.25789999966666666 0.3333333333333333
 O10 O 0.8333333333333333 0.24210000033333334 0.0
 O10 O 0.8333333333333333 0.24210000033333334
  0.3333333333333333
 O10 O 0.8333333333333333 0.09123333300000001 0.0
 O10 O 0.8333333333333333 0.09123333300000001
  0.3333333333333333
 O2 O 0.73015667 0.119513333 -0.057636668333333335
 O2 O 0.73015667 0.119513333 0.3909700016666667
 O2 O 0.9365099966666666 0.21382000033333334
  -0.057636668333333335
 O2 O 0.9365099966666666 0.21382000033333334
  0.3909700016666667
 O2 O 0.9365099966666666 0.119513333 -0.057636668333333335
 O2 O 0.9365099966666666 0.119513333 0.3909700016666667
 O2 O 0.73015667 0.21382000033333334 -0.057636668333333335
 O2 O 0.73015667 0.21382000033333334 0.3909700016666667
 O2 O 0.8968233366666667 0.2861799996666667
  -0.057636668333333335
 O2 O 0.8968233366666667 0.2861799996666667 0.3909700016666667
 O2 O 0.7698433299999999 0.047153333666666665
  -0.057636668333333335
 O2 O 0.7698433299999999 0.047153333666666665
  0.3909700016666667
 O2 O 0.7698433299999999 0.2861799996666667
  -0.057636668333333335
 O2 O 0.7698433299999999 0.2861799996666667 0.3909700016666667
 O2 O 0.8968233366666667 0.047153333666666665
  -0.057636668333333335
 O2 O 0.8968233366666667 0.047153333666666665
  0.3909700016666667
 O7 O 0.693126666 0.04690666499999999 -0.057820002333333335
 O7 O 0.693126666 0.04690666499999999 0.3911533356666667
 O7 O 0.9735400006666666 0.28642666833333336
  -0.057820002333333335
 O7 O 0.9735400006666666 0.28642666833333336
  0.3911533356666667
 O7 O 0.9735400006666666 0.04690666499999999
  -0.057820002333333335
 O7 O 0.9735400006666666 0.04690666499999999
  0.3911533356666667
 O7 O 0.693126666 0.28642666833333336 -0.057820002333333335
 O7 O 0.693126666 0.28642666833333336 0.3911533356666667
 O7 O 0.8597933326666667 0.21357333166666667
  -0.057820002333333335
 O7 O 0.8597933326666667 0.21357333166666667
  0.3911533356666667
 O7 O 0.806873334 0.11976000166666667 -0.057820002333333335
 O7 O 0.806873334 0.11976000166666667 0.3911533356666667
 O7 O 0.806873334 0.21357333166666667 -0.057820002333333335
 O7 O 0.806873334 0.21357333166666667 0.3911533356666667
 O7 O 0.8597933326666667 0.11976000166666667
  -0.057820002333333335
 O7 O 0.8597933326666667 0.11976000166666667
  0.3911533356666667
 Si1 Si 0.08964666733333333 0.36214666566666665
  0.09978000333333333
 Si1 Si 0.243686666 0.6378533343333332 0.23355333
 Si1 Si 0.243686666 0.6378533343333332 0.09978000333333333
 Si1 Si 0.08964666733333333 0.36214666566666665 0.23355333
 Si1 Si 0.243686666 0.36214666566666665 0.23355333
 Si1 Si 0.08964666733333333 0.6378533343333332
  0.09978000333333333
 Si1 Si 0.08964666733333333 0.6378533343333332 0.23355333
 Si1 Si 0.243686666 0.36214666566666665 0.09978000333333333
 Si1 Si 0.256313334 0.5288133323333333 0.09978000333333333
 Si1 Si 0.07701999933333332 0.4711866676666666 0.23355333
 Si1 Si 0.07701999933333332 0.4711866676666666
  0.09978000333333333
 Si1 Si 0.256313334 0.5288133323333333 0.23355333
 Si1 Si 0.07701999933333332 0.5288133323333333 0.23355333
 Si1 Si 0.256313334 0.4711866676666666 0.09978000333333333
 Si1 Si 0.256313334 0.4711866676666666 0.23355333
 Si1 Si 0.07701999933333332 0.5288133323333333
  0.09978000333333333
 Si2 Si 0.040239999666666665 0.36210000033333334
  0.09977666533333333
 Si2 Si 0.2930933336666667 0.6378999996666667 0.233556668
 Si2 Si 0.2930933336666667 0.6378999996666667
  0.09977666533333333
 Si2 Si 0.040239999666666665 0.36210000033333334 0.233556668
 Si2 Si 0.2930933336666667 0.36210000033333334 0.233556668
 Si2 Si 0.040239999666666665 0.6378999996666667
  0.09977666533333333
 Si2 Si 0.040239999666666665 0.6378999996666667 0.233556668
 Si2 Si 0.2930933336666667 0.36210000033333334
  0.09977666533333333
 Si2 Si 0.20690666633333332 0.528766667 0.09977666533333333
 Si2 Si 0.126426667 0.471233333 0.233556668
 Si2 Si 0.126426667 0.471233333 0.09977666533333333
 Si2 Si 0.20690666633333332 0.528766667 0.233556668
 Si2 Si 0.126426667 0.528766667 0.233556668
 Si2 Si 0.20690666633333332 0.471233333 0.09977666533333333
 Si2 Si 0.20690666633333332 0.471233333 0.233556668
 Si2 Si 0.126426667 0.528766667 0.09977666533333333
 Si3 Si 0.06314999866666667 0.435259998 0.0
 Si3 Si 0.06314999866666667 0.435259998 0.3333333333333333
 Si3 Si 0.27018333466666666 0.564740002 0.0
 Si3 Si 0.27018333466666666 0.564740002 0.3333333333333333
 Si3 Si 0.27018333466666666 0.435259998 0.0
 Si3 Si 0.27018333466666666 0.435259998 0.3333333333333333
 Si3 Si 0.06314999866666667 0.564740002 0.0
 Si3 Si 0.06314999866666667 0.564740002 0.3333333333333333
 Si3 Si 0.22981666533333334 0.6019266646666667 0.0
 Si3 Si 0.22981666533333334 0.6019266646666667
  0.3333333333333333
 Si3 Si 0.10351666799999999 0.39807333533333333 0.0
 Si3 Si 0.10351666799999999 0.39807333533333333
  0.3333333333333333
 Si3 Si 0.10351666799999999 0.6019266646666667 0.0
 Si3 Si 0.10351666799999999 0.6019266646666667
  0.3333333333333333
 Si3 Si 0.22981666533333334 0.39807333533333333 0.0
 Si3 Si 0.22981666533333334 0.39807333533333333
  0.3333333333333333
 Si4 Si 0.023806666333333334 0.39739333099999996 0.0
 Si4 Si 0.023806666333333334 0.39739333099999996
  0.3333333333333333
 Si4 Si 0.30952666700000003 0.602606669 0.0
 Si4 Si 0.30952666700000003 0.602606669 0.3333333333333333
 Si4 Si 0.30952666700000003 0.39739333099999996 0.0
 Si4 Si 0.30952666700000003 0.39739333099999996
  0.3333333333333333
 Si4 Si 0.023806666333333334 0.602606669 0.0
 Si4 Si 0.023806666333333334 0.602606669 0.3333333333333333
 Si4 Si 0.190473333 0.5640599976666667 0.0
 Si4 Si 0.190473333 0.5640599976666667 0.3333333333333333
 Si4 Si 0.14286000033333332 0.4359400023333333 0.0
 Si4 Si 0.14286000033333332 0.4359400023333333
  0.3333333333333333
 Si4 Si 0.14286000033333332 0.5640599976666667 0.0
 Si4 Si 0.14286000033333332 0.5640599976666667
  0.3333333333333333
 Si4 Si 0.190473333 0.4359400023333333 0.0
 Si4 Si 0.190473333 0.4359400023333333 0.3333333333333333
 O1 O 0.06493666766666667 0.37004666766666666
  0.09588000166666666
 O1 O 0.2683966656666667 0.6299533323333333
  0.23745333166666668
 O1 O 0.2683966656666667 0.6299533323333333
  0.09588000166666666
 O1 O 0.06493666766666667 0.37004666766666666
  0.23745333166666668
 O1 O 0.2683966656666667 0.37004666766666666
  0.23745333166666668
 O1 O 0.06493666766666667 0.6299533323333333
  0.09588000166666666
 O1 O 0.06493666766666667 0.6299533323333333
  0.23745333166666668
 O1 O 0.2683966656666667 0.37004666766666666
  0.09588000166666666
 O1 O 0.23160333433333333 0.5367133343333333
  0.09588000166666666
 O1 O 0.101729999 0.46328666566666665 0.23745333166666668
 O1 O 0.101729999 0.46328666566666665 0.09588000166666666
 O1 O 0.23160333433333333 0.5367133343333333
  0.23745333166666668
 O1 O 0.101729999 0.5367133343333333 0.23745333166666668
 O1 O 0.23160333433333333 0.46328666566666665
  0.09588000166666666
 O1 O 0.23160333433333333 0.46328666566666665
  0.23745333166666668
 O1 O 0.101729999 0.5367133343333333 0.09588000166666666
 O2 O 0.10317666333333332 0.380486667 0.057636668333333335
 O2 O 0.23015666999999998 0.619513333 0.275696665
 O2 O 0.23015666999999998 0.619513333 0.057636668333333335
 O2 O 0.10317666333333332 0.380486667 0.275696665
 O2 O 0.23015666999999998 0.380486667 0.275696665
 O2 O 0.10317666333333332 0.619513333 0.057636668333333335
 O2 O 0.10317666333333332 0.619513333 0.275696665
 O2 O 0.23015666999999998 0.380486667 0.057636668333333335
 O2 O 0.26984333 0.5471533336666666 0.057636668333333335
 O2 O 0.06349000333333334 0.4528466663333333 0.275696665
 O2 O 0.06349000333333334 0.4528466663333333
  0.057636668333333335
 O2 O 0.26984333 0.5471533336666666 0.275696665
 O2 O 0.06349000333333334 0.5471533336666666 0.275696665
 O2 O 0.26984333 0.4528466663333333 0.057636668333333335
 O2 O 0.26984333 0.4528466663333333 0.275696665
 O2 O 0.06349000333333334 0.5471533336666666
  0.057636668333333335
 O3 O 0.092443337 0.3333333333333333 0.079156667
 O3 O 0.092443337 0.6666666666666666 0.079156667
 O3 O 0.24088999633333333 0.3333333333333333
  0.2541766663333333
 O3 O 0.24088999633333333 0.6666666666666666
  0.2541766663333333
 O3 O 0.24088999633333333 0.3333333333333333 0.079156667
 O3 O 0.24088999633333333 0.6666666666666666 0.079156667
 O3 O 0.092443337 0.3333333333333333 0.2541766663333333
 O3 O 0.092443337 0.6666666666666666 0.2541766663333333
 O3 O 0.25911000366666664 0.5 0.079156667
 O3 O 0.07422332966666667 0.5 0.2541766663333333
 O3 O 0.07422332966666667 0.5 0.079156667
 O3 O 0.25911000366666664 0.5 0.2541766663333333
 O4 O 0.09764666366666667 0.36505999899999997
  0.16666666666666666
 O4 O 0.23568666966666665 0.6349400009999999
  0.16666666666666666
 O4 O 0.23568666966666665 0.36505999899999997
  0.16666666666666666
 O4 O 0.09764666366666667 0.6349400009999999
  0.16666666666666666
 O4 O 0.2643133303333333 0.5317266656666666
  0.16666666666666666
 O4 O 0.069020003 0.4682733343333333 0.16666666666666666
 O4 O 0.069020003 0.5317266656666666 0.16666666666666666
 O4 O 0.2643133303333333 0.4682733343333333
  0.16666666666666666
 O5 O 0.03753 0.3333333333333333 0.078759998
 O5 O 0.03753 0.6666666666666666 0.078759998
 O5 O 0.29580333333333336 0.3333333333333333
  0.2545733353333333
 O5 O 0.29580333333333336 0.6666666666666666
  0.2545733353333333
 O5 O 0.29580333333333336 0.3333333333333333 0.078759998
 O5 O 0.29580333333333336 0.6666666666666666 0.078759998
 O5 O 0.03753 0.3333333333333333 0.2545733353333333
 O5 O 0.03753 0.6666666666666666 0.2545733353333333
 O5 O 0.20419666666666667 0.5 0.078759998
 O5 O 0.12913666666666665 0.5 0.2545733353333333
 O5 O 0.12913666666666665 0.5 0.078759998
 O5 O 0.20419666666666667 0.5 0.2545733353333333
 O6 O 0.03221333266666667 0.3648333326666666
  0.16666666666666666
 O6 O 0.30112000066666667 0.6351666673333334
  0.16666666666666666
 O6 O 0.30112000066666667 0.3648333326666666
  0.16666666666666666
 O6 O 0.03221333266666667 0.6351666673333334
  0.16666666666666666
 O6 O 0.19887999933333333 0.5314999993333334
  0.16666666666666666
 O6 O 0.134453334 0.46850000066666664 0.16666666666666666
 O6 O 0.134453334 0.5314999993333334 0.16666666666666666
 O6 O 0.19887999933333333 0.46850000066666664
  0.16666666666666666
 O7 O 0.02645999933333333 0.38023999833333333
  0.057820002333333335
 O7 O 0.306873334 0.6197600016666667 0.27551333100000003
 O7 O 0.306873334 0.6197600016666667 0.057820002333333335
 O7 O 0.02645999933333333 0.38023999833333333
  0.27551333100000003
 O7 O 0.306873334 0.38023999833333333 0.27551333100000003
 O7 O 0.02645999933333333 0.6197600016666667
  0.057820002333333335
 O7 O 0.02645999933333333 0.6197600016666667
  0.27551333100000003
 O7 O 0.306873334 0.38023999833333333 0.057820002333333335
 O7 O 0.19312666599999997 0.546906665 0.057820002333333335
 O7 O 0.14020666733333334 0.453093335 0.27551333100000003
 O7 O 0.14020666733333334 0.453093335 0.057820002333333335
 O7 O 0.19312666599999997 0.546906665 0.27551333100000003
 O7 O 0.14020666733333334 0.546906665 0.27551333100000003
 O7 O 0.19312666599999997 0.453093335 0.057820002333333335
 O7 O 0.19312666599999997 0.453093335 0.27551333100000003
 O7 O 0.14020666733333334 0.546906665 0.057820002333333335
 O8 O 0.08333333333333333 0.41666666666666663 0.0
 O8 O 0.08333333333333333 0.41666666666666663
  0.3333333333333333
 O8 O 0.25 0.5833333333333333 0.0
 O8 O 0.25 0.5833333333333333 0.3333333333333333
 O8 O 0.25 0.41666666666666663 0.0
 O8 O 0.25 0.41666666666666663 0.3333333333333333
 O8 O 0.08333333333333333 0.5833333333333333 0.0
 O8 O 0.08333333333333333 0.5833333333333333
  0.3333333333333333
 O9 O 0.04121666633333333 0.4195899963333333 0.0
 O9 O 0.04121666633333333 0.4195899963333333
  0.3333333333333333
 O9 O 0.292116667 0.5804100036666666 0.0
 O9 O 0.292116667 0.5804100036666666 0.3333333333333333
 O9 O 0.292116667 0.4195899963333333 0.0
 O9 O 0.292116667 0.4195899963333333 0.3333333333333333
 O9 O 0.04121666633333333 0.5804100036666666 0.0
 O9 O 0.04121666633333333 0.5804100036666666
  0.3333333333333333
 O9 O 0.20788333299999998 0.586256663 0.0
 O9 O 0.20788333299999998 0.586256663 0.3333333333333333
 O9 O 0.12545000033333334 0.413743337 0.0
 O9 O 0.12545000033333334 0.413743337 0.3333333333333333
 O9 O 0.12545000033333334 0.586256663 0.0
 O9 O 0.12545000033333334 0.586256663 0.3333333333333333
 O9 O 0.20788333299999998 0.413743337 0.0
 O9 O 0.20788333299999998 0.413743337 0.3333333333333333
 O10 O 0.0 0.408766667 0.0
 O10 O 0.0 0.408766667 0.3333333333333333
 O10 O 0.3333333333333333 0.408766667 0.0
 O10 O 0.3333333333333333 0.408766667 0.3333333333333333
 O10 O 0.0 0.5912333329999999 0.0
 O10 O 0.0 0.5912333329999999 0.3333333333333333
 O10 O 0.3333333333333333 0.5912333329999999 0.0
 O10 O 0.3333333333333333 0.5912333329999999
  0.3333333333333333
 O10 O 0.16666666666666666 0.5754333336666666 0.0
 O10 O 0.16666666666666666 0.5754333336666666
  0.3333333333333333
 O10 O 0.16666666666666666 0.42456666633333334 0.0
 O10 O 0.16666666666666666 0.42456666633333334
  0.3333333333333333
 O2 O 0.06349000333333334 0.4528466663333333
  -0.057636668333333335
 O2 O 0.06349000333333334 0.4528466663333333
  0.3909700016666667
 O2 O 0.26984333 0.5471533336666666 -0.057636668333333335
 O2 O 0.26984333 0.5471533336666666 0.3909700016666667
 O2 O 0.26984333 0.4528466663333333 -0.057636668333333335
 O2 O 0.26984333 0.4528466663333333 0.3909700016666667
 O2 O 0.06349000333333334 0.5471533336666666
  -0.057636668333333335
 O2 O 0.06349000333333334 0.5471533336666666
  0.3909700016666667
 O2 O 0.23015666999999998 0.619513333 -0.057636668333333335
 O2 O 0.23015666999999998 0.619513333 0.3909700016666667
 O2 O 0.10317666333333332 0.380486667 -0.057636668333333335
 O2 O 0.10317666333333332 0.380486667 0.3909700016666667
 O2 O 0.10317666333333332 0.619513333 -0.057636668333333335
 O2 O 0.10317666333333332 0.619513333 0.3909700016666667
 O2 O 0.23015666999999998 0.380486667 -0.057636668333333335
 O2 O 0.23015666999999998 0.380486667 0.3909700016666667
 O7 O 0.02645999933333333 0.38023999833333333
  -0.057820002333333335
 O7 O 0.02645999933333333 0.38023999833333333
  0.3911533356666667
 O7 O 0.306873334 0.6197600016666667 -0.057820002333333335
 O7 O 0.306873334 0.6197600016666667 0.3911533356666667
 O7 O 0.306873334 0.38023999833333333 -0.057820002333333335
 O7 O 0.306873334 0.38023999833333333 0.3911533356666667
 O7 O 0.02645999933333333 0.6197600016666667
  -0.057820002333333335
 O7 O 0.02645999933333333 0.6197600016666667
  0.3911533356666667
 O7 O 0.19312666599999997 0.546906665 -0.057820002333333335
 O7 O 0.19312666599999997 0.546906665 0.3911533356666667
 O7 O 0.14020666733333334 0.453093335 -0.057820002333333335
 O7 O 0.14020666733333334 0.453093335 0.3911533356666667
 O7 O 0.14020666733333334 0.546906665 -0.057820002333333335
 O7 O 0.14020666733333334 0.546906665 0.3911533356666667
 O7 O 0.19312666599999997 0.453093335 -0.057820002333333335
 O7 O 0.19312666599999997 0.453093335 0.3911533356666667
 Si1 Si 0.42298000066666663 0.36214666566666665
  0.09978000333333333
 Si1 Si 0.5770199993333334 0.6378533343333332 0.23355333
 Si1 Si 0.5770199993333334 0.6378533343333332
  0.09978000333333333
 Si1 Si 0.42298000066666663 0.36214666566666665 0.23355333
 Si1 Si 0.5770199993333334 0.36214666566666665 0.23355333
 Si1 Si 0.42298000066666663 0.6378533343333332
  0.09978000333333333
 Si1 Si 0.42298000066666663 0.6378533343333332 0.23355333
 Si1 Si 0.5770199993333334 0.36214666566666665
  0.09978000333333333
 Si1 Si 0.5896466673333334 0.5288133323333333
  0.09978000333333333
 Si1 Si 0.4103533326666666 0.4711866676666666 0.23355333
 Si1 Si 0.4103533326666666 0.4711866676666666
  0.09978000333333333
 Si1 Si 0.5896466673333334 0.5288133323333333 0.23355333
 Si1 Si 0.4103533326666666 0.5288133323333333 0.23355333
 Si1 Si 0.5896466673333334 0.4711866676666666
  0.09978000333333333
 Si1 Si 0.5896466673333334 0.4711866676666666 0.23355333
 Si1 Si 0.4103533326666666 0.5288133323333333
  0.09978000333333333
 Si2 Si 0.37357333299999995 0.36210000033333334
  0.09977666533333333
 Si2 Si 0.626426667 0.6378999996666667 0.233556668
 Si2 Si 0.626426667 0.6378999996666667 0.09977666533333333
 Si2 Si 0.37357333299999995 0.36210000033333334 0.233556668
 Si2 Si 0.626426667 0.36210000033333334 0.233556668
 Si2 Si 0.37357333299999995 0.6378999996666667
  0.09977666533333333
 Si2 Si 0.37357333299999995 0.6378999996666667 0.233556668
 Si2 Si 0.626426667 0.36210000033333334 0.09977666533333333
 Si2 Si 0.5402399996666667 0.528766667 0.09977666533333333
 Si2 Si 0.4597600003333333 0.471233333 0.233556668
 Si2 Si 0.4597600003333333 0.471233333 0.09977666533333333
 Si2 Si 0.5402399996666667 0.528766667 0.233556668
 Si2 Si 0.4597600003333333 0.528766667 0.233556668
 Si2 Si 0.5402399996666667 0.471233333 0.09977666533333333
 Si2 Si 0.5402399996666667 0.471233333 0.233556668
 Si2 Si 0.4597600003333333 0.528766667 0.09977666533333333
 Si3 Si 0.39648333199999997 0.435259998 0.0
 Si3 Si 0.39648333199999997 0.435259998 0.3333333333333333
 Si3 Si 0.6035166679999999 0.564740002 0.0
 Si3 Si 0.6035166679999999 0.564740002 0.3333333333333333
 Si3 Si 0.6035166679999999 0.435259998 0.0
 Si3 Si 0.6035166679999999 0.435259998 0.3333333333333333
 Si3 Si 0.39648333199999997 0.564740002 0.0
 Si3 Si 0.39648333199999997 0.564740002 0.3333333333333333
 Si3 Si 0.5631499986666666 0.6019266646666667 0.0
 Si3 Si 0.5631499986666666 0.6019266646666667
  0.3333333333333333
 Si3 Si 0.4368500013333333 0.39807333533333333 0.0
 Si3 Si 0.4368500013333333 0.39807333533333333
  0.3333333333333333
 Si3 Si 0.4368500013333333 0.6019266646666667 0.0
 Si3 Si 0.4368500013333333 0.6019266646666667
  0.3333333333333333
 Si3 Si 0.5631499986666666 0.39807333533333333 0.0
 Si3 Si 0.5631499986666666 0.39807333533333333
  0.3333333333333333
 Si4 Si 0.35713999966666665 0.39739333099999996 0.0
 Si4 Si 0.35713999966666665 0.39739333099999996
  0.3333333333333333
 Si4 Si 0.6428600003333333 0.602606669 0.0
 Si4 Si 0.6428600003333333 0.602606669 0.3333333333333333
 Si4 Si 0.6428600003333333 0.39739333099999996 0.0
 Si4 Si 0.6428600003333333 0.39739333099999996
  0.3333333333333333
 Si4 Si 0.35713999966666665 0.602606669 0.0
 Si4 Si 0.35713999966666665 0.602606669 0.3333333333333333
 Si4 Si 0.5238066663333333 0.5640599976666667 0.0
 Si4 Si 0.5238066663333333 0.5640599976666667
  0.3333333333333333
 Si4 Si 0.4761933336666666 0.4359400023333333 0.0
 Si4 Si 0.4761933336666666 0.4359400023333333
  0.3333333333333333
 Si4 Si 0.4761933336666666 0.5640599976666667 0.0
 Si4 Si 0.4761933336666666 0.5640599976666667
  0.3333333333333333
 Si4 Si 0.5238066663333333 0.4359400023333333 0.0
 Si4 Si 0.5238066663333333 0.4359400023333333
  0.3333333333333333
 O1 O 0.398270001 0.37004666766666666 0.09588000166666666
 O1 O 0.601729999 0.6299533323333333 0.23745333166666668
 O1 O 0.601729999 0.6299533323333333 0.09588000166666666
 O1 O 0.398270001 0.37004666766666666 0.23745333166666668
 O1 O 0.601729999 0.37004666766666666 0.23745333166666668
 O1 O 0.398270001 0.6299533323333333 0.09588000166666666
 O1 O 0.398270001 0.6299533323333333 0.23745333166666668
 O1 O 0.601729999 0.37004666766666666 0.09588000166666666
 O1 O 0.5649366676666666 0.5367133343333333
  0.09588000166666666
 O1 O 0.43506333233333333 0.46328666566666665
  0.23745333166666668
 O1 O 0.43506333233333333 0.46328666566666665
  0.09588000166666666
 O1 O 0.5649366676666666 0.5367133343333333
  0.23745333166666668
 O1 O 0.43506333233333333 0.5367133343333333
  0.23745333166666668
 O1 O 0.5649366676666666 0.46328666566666665
  0.09588000166666666
 O1 O 0.5649366676666666 0.46328666566666665
  0.23745333166666668
 O1 O 0.43506333233333333 0.5367133343333333
  0.09588000166666666
 O2 O 0.4365099966666666 0.380486667 0.057636668333333335
 O2 O 0.5634900033333333 0.619513333 0.275696665
 O2 O 0.5634900033333333 0.619513333 0.057636668333333335
 O2 O 0.4365099966666666 0.380486667 0.275696665
 O2 O 0.5634900033333333 0.380486667 0.275696665
 O2 O 0.4365099966666666 0.619513333 0.057636668333333335
 O2 O 0.4365099966666666 0.619513333 0.275696665
 O2 O 0.5634900033333333 0.380486667 0.057636668333333335
 O2 O 0.6031766633333333 0.5471533336666666
  0.057636668333333335
 O2 O 0.39682333666666664 0.4528466663333333 0.275696665
 O2 O 0.39682333666666664 0.4528466663333333
  0.057636668333333335
 O2 O 0.6031766633333333 0.5471533336666666 0.275696665
 O2 O 0.39682333666666664 0.5471533336666666 0.275696665
 O2 O 0.6031766633333333 0.4528466663333333
  0.057636668333333335
 O2 O 0.6031766633333333 0.4528466663333333 0.275696665
 O2 O 0.39682333666666664 0.5471533336666666
  0.057636668333333335
 O3 O 0.42577667033333333 0.3333333333333333 0.079156667
 O3 O 0.42577667033333333 0.6666666666666666 0.079156667
 O3 O 0.5742233296666667 0.3333333333333333 0.2541766663333333
 O3 O 0.5742233296666667 0.6666666666666666 0.2541766663333333
 O3 O 0.5742233296666667 0.3333333333333333 0.079156667
 O3 O 0.5742233296666667 0.6666666666666666 0.079156667
 O3 O 0.42577667033333333 0.3333333333333333
  0.2541766663333333
 O3 O 0.42577667033333333 0.6666666666666666
  0.2541766663333333
 O3 O 0.592443337 0.5 0.079156667
 O3 O 0.407556663 0.5 0.2541766663333333
 O3 O 0.407556663 0.5 0.079156667
 O3 O 0.592443337 0.5 0.2541766663333333
 O4 O 0.430979997 0.36505999899999997 0.16666666666666666
 O4 O 0.569020003 0.6349400009999999 0.16666666666666666
 O4 O 0.569020003 0.36505999899999997 0.16666666666666666
 O4 O 0.430979997 0.6349400009999999 0.16666666666666666
 O4 O 0.5976466636666666 0.5317266656666666
  0.16666666666666666
 O4 O 0.4023533363333333 0.4682733343333333
  0.16666666666666666
 O4 O 0.4023533363333333 0.5317266656666666
  0.16666666666666666
 O4 O 0.5976466636666666 0.4682733343333333
  0.16666666666666666
 O5 O 0.3708633333333333 0.3333333333333333 0.078759998
 O5 O 0.3708633333333333 0.6666666666666666 0.078759998
 O5 O 0.6291366666666667 0.3333333333333333 0.2545733353333333
 O5 O 0.6291366666666667 0.6666666666666666 0.2545733353333333
 O5 O 0.6291366666666667 0.3333333333333333 0.078759998
 O5 O 0.6291366666666667 0.6666666666666666 0.078759998
 O5 O 0.3708633333333333 0.3333333333333333 0.2545733353333333
 O5 O 0.3708633333333333 0.6666666666666666 0.2545733353333333
 O5 O 0.53753 0.5 0.078759998
 O5 O 0.46246999999999994 0.5 0.2545733353333333
 O5 O 0.46246999999999994 0.5 0.078759998
 O5 O 0.53753 0.5 0.2545733353333333
 O6 O 0.36554666599999996 0.3648333326666666
  0.16666666666666666
 O6 O 0.634453334 0.6351666673333334 0.16666666666666666
 O6 O 0.634453334 0.3648333326666666 0.16666666666666666
 O6 O 0.36554666599999996 0.6351666673333334
  0.16666666666666666
 O6 O 0.5322133326666667 0.5314999993333334
  0.16666666666666666
 O6 O 0.4677866673333333 0.46850000066666664
  0.16666666666666666
 O6 O 0.4677866673333333 0.5314999993333334
  0.16666666666666666
 O6 O 0.5322133326666667 0.46850000066666664
  0.16666666666666666
 O7 O 0.35979333266666663 0.38023999833333333
  0.057820002333333335
 O7 O 0.6402066673333333 0.6197600016666667
  0.27551333100000003
 O7 O 0.6402066673333333 0.6197600016666667
  0.057820002333333335
 O7 O 0.35979333266666663 0.38023999833333333
  0.27551333100000003
 O7 O 0.6402066673333333 0.38023999833333333
  0.27551333100000003
 O7 O 0.35979333266666663 0.6197600016666667
  0.057820002333333335
 O7 O 0.35979333266666663 0.6197600016666667
  0.27551333100000003
 O7 O 0.6402066673333333 0.38023999833333333
  0.057820002333333335
 O7 O 0.5264599993333333 0.546906665 0.057820002333333335
 O7 O 0.4735400006666667 0.453093335 0.27551333100000003
 O7 O 0.4735400006666667 0.453093335 0.057820002333333335
 O7 O 0.5264599993333333 0.546906665 0.27551333100000003
 O7 O 0.4735400006666667 0.546906665 0.27551333100000003
 O7 O 0.5264599993333333 0.453093335 0.057820002333333335
 O7 O 0.5264599993333333 0.453093335 0.27551333100000003
 O7 O 0.4735400006666667 0.546906665 0.057820002333333335
 O8 O 0.41666666666666663 0.41666666666666663 0.0
 O8 O 0.41666666666666663 0.41666666666666663
  0.3333333333333333
 O8 O 0.5833333333333333 0.5833333333333333 0.0
 O8 O 0.5833333333333333 0.5833333333333333 0.3333333333333333
 O8 O 0.5833333333333333 0.41666666666666663 0.0
 O8 O 0.5833333333333333 0.41666666666666663
  0.3333333333333333
 O8 O 0.41666666666666663 0.5833333333333333 0.0
 O8 O 0.41666666666666663 0.5833333333333333
  0.3333333333333333
 O9 O 0.37454999966666663 0.4195899963333333 0.0
 O9 O 0.37454999966666663 0.4195899963333333
  0.3333333333333333
 O9 O 0.6254500003333333 0.5804100036666666 0.0
 O9 O 0.6254500003333333 0.5804100036666666 0.3333333333333333
 O9 O 0.6254500003333333 0.4195899963333333 0.0
 O9 O 0.6254500003333333 0.4195899963333333 0.3333333333333333
 O9 O 0.37454999966666663 0.5804100036666666 0.0
 O9 O 0.37454999966666663 0.5804100036666666
  0.3333333333333333
 O9 O 0.5412166663333333 0.586256663 0.0
 O9 O 0.5412166663333333 0.586256663 0.3333333333333333
 O9 O 0.4587833336666667 0.413743337 0.0
 O9 O 0.4587833336666667 0.413743337 0.3333333333333333
 O9 O 0.4587833336666667 0.586256663 0.0
 O9 O 0.4587833336666667 0.586256663 0.3333333333333333
 O9 O 0.5412166663333333 0.413743337 0.0
 O9 O 0.5412166663333333 0.413743337 0.3333333333333333
 O10 O 0.3333333333333333 0.408766667 0.0
 O10 O 0.3333333333333333 0.408766667 0.3333333333333333
 O10 O 0.6666666666666666 0.408766667 0.0
 O10 O 0.6666666666666666 0.408766667 0.3333333333333333
 O10 O 0.3333333333333333 0.5912333329999999 0.0
 O10 O 0.3333333333333333 0.5912333329999999
  0.3333333333333333
 O10 O 0.6666666666666666 0.5912333329999999 0.0
 O10 O 0.6666666666666666 0.5912333329999999
  0.3333333333333333
 O10 O 0.5 0.5754333336666666 0.0
 O10 O 0.5 0.5754333336666666 0.3333333333333333
 O10 O 0.5 0.42456666633333334 0.0
 O10 O 0.5 0.42456666633333334 0.3333333333333333
 O2 O 0.39682333666666664 0.4528466663333333
  -0.057636668333333335
 O2 O 0.39682333666666664 0.4528466663333333
  0.3909700016666667
 O2 O 0.6031766633333333 0.5471533336666666
  -0.057636668333333335
 O2 O 0.6031766633333333 0.5471533336666666 0.3909700016666667
 O2 O 0.6031766633333333 0.4528466663333333
  -0.057636668333333335
 O2 O 0.6031766633333333 0.4528466663333333 0.3909700016666667
 O2 O 0.39682333666666664 0.5471533336666666
  -0.057636668333333335
 O2 O 0.39682333666666664 0.5471533336666666
  0.3909700016666667
 O2 O 0.5634900033333333 0.619513333 -0.057636668333333335
 O2 O 0.5634900033333333 0.619513333 0.3909700016666667
 O2 O 0.4365099966666666 0.380486667 -0.057636668333333335
 O2 O 0.4365099966666666 0.380486667 0.3909700016666667
 O2 O 0.4365099966666666 0.619513333 -0.057636668333333335
 O2 O 0.4365099966666666 0.619513333 0.3909700016666667
 O2 O 0.5634900033333333 0.380486667 -0.057636668333333335
 O2 O 0.5634900033333333 0.380486667 0.3909700016666667
 O7 O 0.35979333266666663 0.38023999833333333
  -0.057820002333333335
 O7 O 0.35979333266666663 0.38023999833333333
  0.3911533356666667
 O7 O 0.6402066673333333 0.6197600016666667
  -0.057820002333333335
 O7 O 0.6402066673333333 0.6197600016666667 0.3911533356666667
 O7 O 0.6402066673333333 0.38023999833333333
  -0.057820002333333335
 O7 O 0.6402066673333333 0.38023999833333333
  0.3911533356666667
 O7 O 0.35979333266666663 0.6197600016666667
  -0.057820002333333335
 O7 O 0.35979333266666663 0.6197600016666667
  0.3911533356666667
 O7 O 0.5264599993333333 0.546906665 -0.057820002333333335
 O7 O 0.5264599993333333 0.546906665 0.3911533356666667
 O7 O 0.4735400006666667 0.453093335 -0.057820002333333335
 O7 O 0.4735400006666667 0.453093335 0.3911533356666667
 O7 O 0.4735400006666667 0.546906665 -0.057820002333333335
 O7 O 0.4735400006666667 0.546906665 0.3911533356666667
 O7 O 0.5264599993333333 0.453093335 -0.057820002333333335
 O7 O 0.5264599993333333 0.453093335 0.3911533356666667
 Si1 Si 0.7563133339999999 0.36214666566666665
  0.09978000333333333
 Si1 Si 0.9103533326666666 0.6378533343333332 0.23355333
 Si1 Si 0.9103533326666666 0.6378533343333332
  0.09978000333333333
 Si1 Si 0.7563133339999999 0.36214666566666665 0.23355333
 Si1 Si 0.9103533326666666 0.36214666566666665 0.23355333
 Si1 Si 0.7563133339999999 0.6378533343333332
  0.09978000333333333
 Si1 Si 0.7563133339999999 0.6378533343333332 0.23355333
 Si1 Si 0.9103533326666666 0.36214666566666665
  0.09978000333333333
 Si1 Si 0.9229800006666666 0.5288133323333333
  0.09978000333333333
 Si1 Si 0.7436866659999999 0.4711866676666666 0.23355333
 Si1 Si 0.7436866659999999 0.4711866676666666
  0.09978000333333333
 Si1 Si 0.9229800006666666 0.5288133323333333 0.23355333
 Si1 Si 0.7436866659999999 0.5288133323333333 0.23355333
 Si1 Si 0.9229800006666666 0.4711866676666666
  0.09978000333333333
 Si1 Si 0.9229800006666666 0.4711866676666666 0.23355333
 Si1 Si 0.7436866659999999 0.5288133323333333
  0.09978000333333333
 Si2 Si 0.7069066663333332 0.36210000033333334
  0.09977666533333333
 Si2 Si 0.9597600003333333 0.6378999996666667 0.233556668
 Si2 Si 0.9597600003333333 0.6378999996666667
  0.09977666533333333
 Si2 Si 0.7069066663333332 0.36210000033333334 0.233556668
 Si2 Si 0.9597600003333333 0.36210000033333334 0.233556668
 Si2 Si 0.7069066663333332 0.6378999996666667
  0.09977666533333333
 Si2 Si 0.7069066663333332 0.6378999996666667 0.233556668
 Si2 Si 0.9597600003333333 0.36210000033333334
  0.09977666533333333
 Si2 Si 0.873573333 0.528766667 0.09977666533333333
 Si2 Si 0.7930933336666666 0.471233333 0.233556668
 Si2 Si 0.7930933336666666 0.471233333 0.09977666533333333
 Si2 Si 0.873573333 0.528766667 0.233556668
 Si2 Si 0.7930933336666666 0.528766667 0.233556668
 Si2 Si 0.873573333 0.471233333 0.09977666533333333
 Si2 Si 0.873573333 0.471233333 0.233556668
 Si2 Si 0.7930933336666666 0.528766667 0.09977666533333333
 Si3 Si 0.7298166653333333 0.435259998 0.0
 Si3 Si 0.7298166653333333 0.435259998 0.3333333333333333
 Si3 Si 0.9368500013333332 0.564740002 0.0
 Si3 Si 0.9368500013333332 0.564740002 0.3333333333333333
 Si3 Si 0.9368500013333332 0.435259998 0.0
 Si3 Si 0.9368500013333332 0.435259998 0.3333333333333333
 Si3 Si 0.7298166653333333 0.564740002 0.0
 Si3 Si 0.7298166653333333 0.564740002 0.3333333333333333
 Si3 Si 0.8964833319999999 0.6019266646666667 0.0
 Si3 Si 0.8964833319999999 0.6019266646666667
  0.3333333333333333
 Si3 Si 0.7701833346666667 0.39807333533333333 0.0
 Si3 Si 0.7701833346666667 0.39807333533333333
  0.3333333333333333
 Si3 Si 0.7701833346666667 0.6019266646666667 0.0
 Si3 Si 0.7701833346666667 0.6019266646666667
  0.3333333333333333
 Si3 Si 0.8964833319999999 0.39807333533333333 0.0
 Si3 Si 0.8964833319999999 0.39807333533333333
  0.3333333333333333
 Si4 Si 0.6904733329999999 0.39739333099999996 0.0
 Si4 Si 0.6904733329999999 0.39739333099999996
  0.3333333333333333
 Si4 Si 0.9761933336666666 0.602606669 0.0
 Si4 Si 0.9761933336666666 0.602606669 0.3333333333333333
 Si4 Si 0.9761933336666666 0.39739333099999996 0.0
 Si4 Si 0.9761933336666666 0.39739333099999996
  0.3333333333333333
 Si4 Si 0.6904733329999999 0.602606669 0.0
 Si4 Si 0.6904733329999999 0.602606669 0.3333333333333333
 Si4 Si 0.8571399996666667 0.5640599976666667 0.0
 Si4 Si 0.8571399996666667 0.5640599976666667
  0.3333333333333333
 Si4 Si 0.8095266669999999 0.4359400023333333 0.0
 Si4 Si 0.8095266669999999 0.4359400023333333
  0.3333333333333333
 Si4 Si 0.8095266669999999 0.5640599976666667 0.0
 Si4 Si 0.8095266669999999 0.5640599976666667
  0.3333333333333333
 Si4 Si 0.8571399996666667 0.4359400023333333 0.0
 Si4 Si 0.8571399996666667 0.4359400023333333
  0.3333333333333333
 O1 O 0.7316033343333332 0.37004666766666666
  0.09588000166666666
 O1 O 0.9350633323333333 0.6299533323333333
  0.23745333166666668
 O1 O 0.9350633323333333 0.6299533323333333
  0.09588000166666666
 O1 O 0.7316033343333332 0.37004666766666666
  0.23745333166666668
 O1 O 0.9350633323333333 0.37004666766666666
  0.23745333166666668
 O1 O 0.7316033343333332 0.6299533323333333
  0.09588000166666666
 O1 O 0.7316033343333332 0.6299533323333333
  0.23745333166666668
 O1 O 0.9350633323333333 0.37004666766666666
  0.09588000166666666
 O1 O 0.898270001 0.5367133343333333 0.09588000166666666
 O1 O 0.7683966656666666 0.46328666566666665
  0.23745333166666668
 O1 O 0.7683966656666666 0.46328666566666665
  0.09588000166666666
 O1 O 0.898270001 0.5367133343333333 0.23745333166666668
 O1 O 0.7683966656666666 0.5367133343333333
  0.23745333166666668
 O1 O 0.898270001 0.46328666566666665 0.09588000166666666
 O1 O 0.898270001 0.46328666566666665 0.23745333166666668
 O1 O 0.7683966656666666 0.5367133343333333
  0.09588000166666666
 O2 O 0.7698433299999999 0.380486667 0.057636668333333335
 O2 O 0.8968233366666667 0.619513333 0.275696665
 O2 O 0.8968233366666667 0.619513333 0.057636668333333335
 O2 O 0.7698433299999999 0.380486667 0.275696665
 O2 O 0.8968233366666667 0.380486667 0.275696665
 O2 O 0.7698433299999999 0.619513333 0.057636668333333335
 O2 O 0.7698433299999999 0.619513333 0.275696665
 O2 O 0.8968233366666667 0.380486667 0.057636668333333335
 O2 O 0.9365099966666666 0.5471533336666666
  0.057636668333333335
 O2 O 0.73015667 0.4528466663333333 0.275696665
 O2 O 0.73015667 0.4528466663333333 0.057636668333333335
 O2 O 0.9365099966666666 0.5471533336666666 0.275696665
 O2 O 0.73015667 0.5471533336666666 0.275696665
 O2 O 0.9365099966666666 0.4528466663333333
  0.057636668333333335
 O2 O 0.9365099966666666 0.4528466663333333 0.275696665
 O2 O 0.73015667 0.5471533336666666 0.057636668333333335
 O3 O 0.7591100036666667 0.3333333333333333 0.079156667
 O3 O 0.7591100036666667 0.6666666666666666 0.079156667
 O3 O 0.907556663 0.3333333333333333 0.2541766663333333
 O3 O 0.907556663 0.6666666666666666 0.2541766663333333
 O3 O 0.907556663 0.3333333333333333 0.079156667
 O3 O 0.907556663 0.6666666666666666 0.079156667
 O3 O 0.7591100036666667 0.3333333333333333 0.2541766663333333
 O3 O 0.7591100036666667 0.6666666666666666 0.2541766663333333
 O3 O 0.9257766703333332 0.5 0.079156667
 O3 O 0.7408899963333333 0.5 0.2541766663333333
 O3 O 0.7408899963333333 0.5 0.079156667
 O3 O 0.9257766703333332 0.5 0.2541766663333333
 O4 O 0.7643133303333334 0.36505999899999997
  0.16666666666666666
 O4 O 0.9023533363333334 0.6349400009999999
  0.16666666666666666
 O4 O 0.9023533363333334 0.36505999899999997
  0.16666666666666666
 O4 O 0.7643133303333334 0.6349400009999999
  0.16666666666666666
 O4 O 0.9309799969999999 0.5317266656666666
  0.16666666666666666
 O4 O 0.7356866696666666 0.4682733343333333
  0.16666666666666666
 O4 O 0.7356866696666666 0.5317266656666666
  0.16666666666666666
 O4 O 0.9309799969999999 0.4682733343333333
  0.16666666666666666
 O5 O 0.7041966666666666 0.3333333333333333 0.078759998
 O5 O 0.7041966666666666 0.6666666666666666 0.078759998
 O5 O 0.9624699999999999 0.3333333333333333 0.2545733353333333
 O5 O 0.9624699999999999 0.6666666666666666 0.2545733353333333
 O5 O 0.9624699999999999 0.3333333333333333 0.078759998
 O5 O 0.9624699999999999 0.6666666666666666 0.078759998
 O5 O 0.7041966666666666 0.3333333333333333 0.2545733353333333
 O5 O 0.7041966666666666 0.6666666666666666 0.2545733353333333
 O5 O 0.8708633333333333 0.5 0.078759998
 O5 O 0.7958033333333332 0.5 0.2545733353333333
 O5 O 0.7958033333333332 0.5 0.078759998
 O5 O 0.8708633333333333 0.5 0.2545733353333333
 O6 O 0.6988799993333332 0.3648333326666666
  0.16666666666666666
 O6 O 0.9677866673333333 0.6351666673333334
  0.16666666666666666
 O6 O 0.9677866673333333 0.3648333326666666
  0.16666666666666666
 O6 O 0.6988799993333332 0.6351666673333334
  0.16666666666666666
 O6 O 0.865546666 0.5314999993333334 0.16666666666666666
 O6 O 0.8011200006666666 0.46850000066666664
  0.16666666666666666
 O6 O 0.8011200006666666 0.5314999993333334
  0.16666666666666666
 O6 O 0.865546666 0.46850000066666664 0.16666666666666666
 O7 O 0.693126666 0.38023999833333333 0.057820002333333335
 O7 O 0.9735400006666666 0.6197600016666667
  0.27551333100000003
 O7 O 0.9735400006666666 0.6197600016666667
  0.057820002333333335
 O7 O 0.693126666 0.38023999833333333 0.27551333100000003
 O7 O 0.9735400006666666 0.38023999833333333
  0.27551333100000003
 O7 O 0.693126666 0.6197600016666667 0.057820002333333335
 O7 O 0.693126666 0.6197600016666667 0.27551333100000003
 O7 O 0.9735400006666666 0.38023999833333333
  0.057820002333333335
 O7 O 0.8597933326666667 0.546906665 0.057820002333333335
 O7 O 0.806873334 0.453093335 0.27551333100000003
 O7 O 0.806873334 0.453093335 0.057820002333333335
 O7 O 0.8597933326666667 0.546906665 0.27551333100000003
 O7 O 0.806873334 0.546906665 0.27551333100000003
 O7 O 0.8597933326666667 0.453093335 0.057820002333333335
 O7 O 0.8597933326666667 0.453093335 0.27551333100000003
 O7 O 0.806873334 0.546906665 0.057820002333333335
 O8 O 0.75 0.41666666666666663 0.0
 O8 O 0.75 0.41666666666666663 0.3333333333333333
 O8 O 0.9166666666666665 0.5833333333333333 0.0
 O8 O 0.9166666666666665 0.5833333333333333 0.3333333333333333
 O8 O 0.9166666666666665 0.41666666666666663 0.0
 O8 O 0.9166666666666665 0.41666666666666663
  0.3333333333333333
 O8 O 0.75 0.5833333333333333 0.0
 O8 O 0.75 0.5833333333333333 0.3333333333333333
 O9 O 0.707883333 0.4195899963333333 0.0
 O9 O 0.707883333 0.4195899963333333 0.3333333333333333
 O9 O 0.9587833336666667 0.5804100036666666 0.0
 O9 O 0.9587833336666667 0.5804100036666666 0.3333333333333333
 O9 O 0.9587833336666667 0.4195899963333333 0.0
 O9 O 0.9587833336666667 0.4195899963333333 0.3333333333333333
 O9 O 0.707883333 0.5804100036666666 0.0
 O9 O 0.707883333 0.5804100036666666 0.3333333333333333
 O9 O 0.8745499996666666 0.586256663 0.0
 O9 O 0.8745499996666666 0.586256663 0.3333333333333333
 O9 O 0.7921166669999999 0.413743337 0.0
 O9 O 0.7921166669999999 0.413743337 0.3333333333333333
 O9 O 0.7921166669999999 0.586256663 0.0
 O9 O 0.7921166669999999 0.586256663 0.3333333333333333
 O9 O 0.8745499996666666 0.413743337 0.0
 O9 O 0.8745499996666666 0.413743337 0.3333333333333333
 O10 O 0.6666666666666666 0.408766667 0.0
 O10 O 0.6666666666666666 0.408766667 0.3333333333333333
 O10 O 1.0 0.408766667 0.0
 O10 O 1.0 0.408766667 0.3333333333333333
 O10 O 0.6666666666666666 0.5912333329999999 0.0
 O10 O 0.6666666666666666 0.5912333329999999
  0.3333333333333333
 O10 O 1.0 0.5912333329999999 0.0
 O10 O 1.0 0.5912333329999999 0.3333333333333333
 O10 O 0.8333333333333333 0.5754333336666666 0.0
 O10 O 0.8333333333333333 0.5754333336666666
  0.3333333333333333
 O10 O 0.8333333333333333 0.42456666633333334 0.0
 O10 O 0.8333333333333333 0.42456666633333334
  0.3333333333333333
 O2 O 0.73015667 0.4528466663333333 -0.057636668333333335
 O2 O 0.73015667 0.4528466663333333 0.3909700016666667
 O2 O 0.9365099966666666 0.5471533336666666
  -0.057636668333333335
 O2 O 0.9365099966666666 0.5471533336666666 0.3909700016666667
 O2 O 0.9365099966666666 0.4528466663333333
  -0.057636668333333335
 O2 O 0.9365099966666666 0.4528466663333333 0.3909700016666667
 O2 O 0.73015667 0.5471533336666666 -0.057636668333333335
 O2 O 0.73015667 0.5471533336666666 0.3909700016666667
 O2 O 0.8968233366666667 0.619513333 -0.057636668333333335
 O2 O 0.8968233366666667 0.619513333 0.3909700016666667
 O2 O 0.7698433299999999 0.380486667 -0.057636668333333335
 O2 O 0.7698433299999999 0.380486667 0.3909700016666667
 O2 O 0.7698433299999999 0.619513333 -0.057636668333333335
 O2 O 0.7698433299999999 0.619513333 0.3909700016666667
 O2 O 0.8968233366666667 0.380486667 -0.057636668333333335
 O2 O 0.8968233366666667 0.380486667 0.3909700016666667
 O7 O 0.693126666 0.38023999833333333 -0.057820002333333335
 O7 O 0.693126666 0.38023999833333333 0.3911533356666667
 O7 O 0.9735400006666666 0.6197600016666667
  -0.057820002333333335
 O7 O 0.9735400006666666 0.6197600016666667 0.3911533356666667
 O7 O 0.9735400006666666 0.38023999833333333
  -0.057820002333333335
 O7 O 0.9735400006666666 0.38023999833333333
  0.3911533356666667
 O7 O 0.693126666 0.6197600016666667 -0.057820002333333335
 O7 O 0.693126666 0.6197600016666667 0.3911533356666667
 O7 O 0.8597933326666667 0.546906665 -0.057820002333333335
 O7 O 0.8597933326666667 0.546906665 0.3911533356666667
 O7 O 0.806873334 0.453093335 -0.057820002333333335
 O7 O 0.806873334 0.453093335 0.3911533356666667
 O7 O 0.806873334 0.546906665 -0.057820002333333335
 O7 O 0.806873334 0.546906665 0.3911533356666667
 O7 O 0.8597933326666667 0.453093335 -0.057820002333333335
 O7 O 0.8597933326666667 0.453093335 0.3911533356666667
 Si1 Si 0.08964666733333333 0.695479999 0.09978000333333333
 Si1 Si 0.243686666 0.9711866676666665 0.23355333
 Si1 Si 0.243686666 0.9711866676666665 0.09978000333333333
 Si1 Si 0.08964666733333333 0.695479999 0.23355333
 Si1 Si 0.243686666 0.695479999 0.23355333
 Si1 Si 0.08964666733333333 0.9711866676666665
  0.09978000333333333
 Si1 Si 0.08964666733333333 0.9711866676666665 0.23355333
 Si1 Si 0.243686666 0.695479999 0.09978000333333333
 Si1 Si 0.256313334 0.8621466656666665 0.09978000333333333
 Si1 Si 0.07701999933333332 0.804520001 0.23355333
 Si1 Si 0.07701999933333332 0.804520001 0.09978000333333333
 Si1 Si 0.256313334 0.8621466656666665 0.23355333
 Si1 Si 0.07701999933333332 0.8621466656666665 0.23355333
 Si1 Si 0.256313334 0.804520001 0.09978000333333333
 Si1 Si 0.256313334 0.804520001 0.23355333
 Si1 Si 0.07701999933333332 0.8621466656666665
  0.09978000333333333
 Si2 Si 0.040239999666666665 0.6954333336666667
  0.09977666533333333
 Si2 Si 0.2930933336666667 0.971233333 0.233556668
 Si2 Si 0.2930933336666667 0.971233333 0.09977666533333333
 Si2 Si 0.040239999666666665 0.6954333336666667 0.233556668
 Si2 Si 0.2930933336666667 0.6954333336666667 0.233556668
 Si2 Si 0.040239999666666665 0.971233333 0.09977666533333333
 Si2 Si 0.040239999666666665 0.971233333 0.233556668
 Si2 Si 0.2930933336666667 0.6954333336666667
  0.09977666533333333
 Si2 Si 0.20690666633333332 0.8621000003333332
  0.09977666533333333
 Si2 Si 0.126426667 0.8045666663333333 0.233556668
 Si2 Si 0.126426667 0.8045666663333333 0.09977666533333333
 Si2 Si 0.20690666633333332 0.8621000003333332 0.233556668
 Si2 Si 0.126426667 0.8621000003333332 0.233556668
 Si2 Si 0.20690666633333332 0.8045666663333333
  0.09977666533333333
 Si2 Si 0.20690666633333332 0.8045666663333333 0.233556668
 Si2 Si 0.126426667 0.8621000003333332 0.09977666533333333
 Si3 Si 0.06314999866666667 0.7685933313333333 0.0
 Si3 Si 0.06314999866666667 0.7685933313333333
  0.3333333333333333
 Si3 Si 0.27018333466666666 0.8980733353333332 0.0
 Si3 Si 0.27018333466666666 0.8980733353333332
  0.3333333333333333
 Si3 Si 0.27018333466666666 0.7685933313333333 0.0
 Si3 Si 0.27018333466666666 0.7685933313333333
  0.3333333333333333
 Si3 Si 0.06314999866666667 0.8980733353333332 0.0
 Si3 Si 0.06314999866666667 0.8980733353333332
  0.3333333333333333
 Si3 Si 0.22981666533333334 0.935259998 0.0
 Si3 Si 0.22981666533333334 0.935259998 0.3333333333333333
 Si3 Si 0.10351666799999999 0.7314066686666667 0.0
 Si3 Si 0.10351666799999999 0.7314066686666667
  0.3333333333333333
 Si3 Si 0.10351666799999999 0.935259998 0.0
 Si3 Si 0.10351666799999999 0.935259998 0.3333333333333333
 Si3 Si 0.22981666533333334 0.7314066686666667 0.0
 Si3 Si 0.22981666533333334 0.7314066686666667
  0.3333333333333333
 Si4 Si 0.023806666333333334 0.7307266643333332 0.0
 Si4 Si 0.023806666333333334 0.7307266643333332
  0.3333333333333333
 Si4 Si 0.30952666700000003 0.9359400023333333 0.0
 Si4 Si 0.30952666700000003 0.9359400023333333
  0.3333333333333333
 Si4 Si 0.30952666700000003 0.7307266643333332 0.0
 Si4 Si 0.30952666700000003 0.7307266643333332
  0.3333333333333333
 Si4 Si 0.023806666333333334 0.9359400023333333 0.0
 Si4 Si 0.023806666333333334 0.9359400023333333
  0.3333333333333333
 Si4 Si 0.190473333 0.897393331 0.0
 Si4 Si 0.190473333 0.897393331 0.3333333333333333
 Si4 Si 0.14286000033333332 0.7692733356666666 0.0
 Si4 Si 0.14286000033333332 0.7692733356666666
  0.3333333333333333
 Si4 Si 0.14286000033333332 0.897393331 0.0
 Si4 Si 0.14286000033333332 0.897393331 0.3333333333333333
 Si4 Si 0.190473333 0.7692733356666666 0.0
 Si4 Si 0.190473333 0.7692733356666666 0.3333333333333333
 O1 O 0.06493666766666667 0.703380001 0.09588000166666666
 O1 O 0.2683966656666667 0.9632866656666665
  0.23745333166666668
 O1 O 0.2683966656666667 0.9632866656666665
  0.09588000166666666
 O1 O 0.06493666766666667 0.703380001 0.23745333166666668
 O1 O 0.2683966656666667 0.703380001 0.23745333166666668
 O1 O 0.06493666766666667 0.9632866656666665
  0.09588000166666666
 O1 O 0.06493666766666667 0.9632866656666665
  0.23745333166666668
 O1 O 0.2683966656666667 0.703380001 0.09588000166666666
 O1 O 0.23160333433333333 0.8700466676666667
  0.09588000166666666
 O1 O 0.101729999 0.796619999 0.23745333166666668
 O1 O 0.101729999 0.796619999 0.09588000166666666
 O1 O 0.23160333433333333 0.8700466676666667
  0.23745333166666668
 O1 O 0.101729999 0.8700466676666667 0.23745333166666668
 O1 O 0.23160333433333333 0.796619999 0.09588000166666666
 O1 O 0.23160333433333333 0.796619999 0.23745333166666668
 O1 O 0.101729999 0.8700466676666667 0.09588000166666666
 O2 O 0.10317666333333332 0.7138200003333333
  0.057636668333333335
 O2 O 0.23015666999999998 0.9528466663333333 0.275696665
 O2 O 0.23015666999999998 0.9528466663333333
  0.057636668333333335
 O2 O 0.10317666333333332 0.7138200003333333 0.275696665
 O2 O 0.23015666999999998 0.7138200003333333 0.275696665
 O2 O 0.10317666333333332 0.9528466663333333
  0.057636668333333335
 O2 O 0.10317666333333332 0.9528466663333333 0.275696665
 O2 O 0.23015666999999998 0.7138200003333333
  0.057636668333333335
 O2 O 0.26984333 0.880486667 0.057636668333333335
 O2 O 0.06349000333333334 0.7861799996666666 0.275696665
 O2 O 0.06349000333333334 0.7861799996666666
  0.057636668333333335
 O2 O 0.26984333 0.880486667 0.275696665
 O2 O 0.06349000333333334 0.880486667 0.275696665
 O2 O 0.26984333 0.7861799996666666 0.057636668333333335
 O2 O 0.26984333 0.7861799996666666 0.275696665
 O2 O 0.06349000333333334 0.880486667 0.057636668333333335
 O3 O 0.092443337 0.6666666666666666 0.079156667
 O3 O 0.092443337 1.0 0.079156667
 O3 O 0.24088999633333333 0.6666666666666666
  0.2541766663333333
 O3 O 0.24088999633333333 1.0 0.2541766663333333
 O3 O 0.24088999633333333 0.6666666666666666 0.079156667
 O3 O 0.24088999633333333 1.0 0.079156667
 O3 O 0.092443337 0.6666666666666666 0.2541766663333333
 O3 O 0.092443337 1.0 0.2541766663333333
 O3 O 0.25911000366666664 0.8333333333333333 0.079156667
 O3 O 0.07422332966666667 0.8333333333333333
  0.2541766663333333
 O3 O 0.07422332966666667 0.8333333333333333 0.079156667
 O3 O 0.25911000366666664 0.8333333333333333
  0.2541766663333333
 O4 O 0.09764666366666667 0.6983933323333333
  0.16666666666666666
 O4 O 0.23568666966666665 0.9682733343333332
  0.16666666666666666
 O4 O 0.23568666966666665 0.6983933323333333
  0.16666666666666666
 O4 O 0.09764666366666667 0.9682733343333332
  0.16666666666666666
 O4 O 0.2643133303333333 0.8650599989999999
  0.16666666666666666
 O4 O 0.069020003 0.8016066676666667 0.16666666666666666
 O4 O 0.069020003 0.8650599989999999 0.16666666666666666
 O4 O 0.2643133303333333 0.8016066676666667
  0.16666666666666666
 O5 O 0.03753 0.6666666666666666 0.078759998
 O5 O 0.03753 1.0 0.078759998
 O5 O 0.29580333333333336 0.6666666666666666
  0.2545733353333333
 O5 O 0.29580333333333336 1.0 0.2545733353333333
 O5 O 0.29580333333333336 0.6666666666666666 0.078759998
 O5 O 0.29580333333333336 1.0 0.078759998
 O5 O 0.03753 0.6666666666666666 0.2545733353333333
 O5 O 0.03753 1.0 0.2545733353333333
 O5 O 0.20419666666666667 0.8333333333333333 0.078759998
 O5 O 0.12913666666666665 0.8333333333333333
  0.2545733353333333
 O5 O 0.12913666666666665 0.8333333333333333 0.078759998
 O5 O 0.20419666666666667 0.8333333333333333
  0.2545733353333333
 O6 O 0.03221333266666667 0.6981666659999999
  0.16666666666666666
 O6 O 0.30112000066666667 0.9685000006666666
  0.16666666666666666
 O6 O 0.30112000066666667 0.6981666659999999
  0.16666666666666666
 O6 O 0.03221333266666667 0.9685000006666666
  0.16666666666666666
 O6 O 0.19887999933333333 0.8648333326666666
  0.16666666666666666
 O6 O 0.134453334 0.8018333339999999 0.16666666666666666
 O6 O 0.134453334 0.8648333326666666 0.16666666666666666
 O6 O 0.19887999933333333 0.8018333339999999
  0.16666666666666666
 O7 O 0.02645999933333333 0.7135733316666666
  0.057820002333333335
 O7 O 0.306873334 0.9530933349999999 0.27551333100000003
 O7 O 0.306873334 0.9530933349999999 0.057820002333333335
 O7 O 0.02645999933333333 0.7135733316666666
  0.27551333100000003
 O7 O 0.306873334 0.7135733316666666 0.27551333100000003
 O7 O 0.02645999933333333 0.9530933349999999
  0.057820002333333335
 O7 O 0.02645999933333333 0.9530933349999999
  0.27551333100000003
 O7 O 0.306873334 0.7135733316666666 0.057820002333333335
 O7 O 0.19312666599999997 0.8802399983333333
  0.057820002333333335
 O7 O 0.14020666733333334 0.7864266683333333
  0.27551333100000003
 O7 O 0.14020666733333334 0.7864266683333333
  0.057820002333333335
 O7 O 0.19312666599999997 0.8802399983333333
  0.27551333100000003
 O7 O 0.14020666733333334 0.8802399983333333
  0.27551333100000003
 O7 O 0.19312666599999997 0.7864266683333333
  0.057820002333333335
 O7 O 0.19312666599999997 0.7864266683333333
  0.27551333100000003
 O7 O 0.14020666733333334 0.8802399983333333
  0.057820002333333335
 O8 O 0.08333333333333333 0.75 0.0
 O8 O 0.08333333333333333 0.75 0.3333333333333333
 O8 O 0.25 0.9166666666666665 0.0
 O8 O 0.25 0.9166666666666665 0.3333333333333333
 O8 O 0.25 0.75 0.0
 O8 O 0.25 0.75 0.3333333333333333
 O8 O 0.08333333333333333 0.9166666666666665 0.0
 O8 O 0.08333333333333333 0.9166666666666665
  0.3333333333333333
 O9 O 0.04121666633333333 0.7529233296666666 0.0
 O9 O 0.04121666633333333 0.7529233296666666
  0.3333333333333333
 O9 O 0.292116667 0.9137433369999999 0.0
 O9 O 0.292116667 0.9137433369999999 0.3333333333333333
 O9 O 0.292116667 0.7529233296666666 0.0
 O9 O 0.292116667 0.7529233296666666 0.3333333333333333
 O9 O 0.04121666633333333 0.9137433369999999 0.0
 O9 O 0.04121666633333333 0.9137433369999999
  0.3333333333333333
 O9 O 0.20788333299999998 0.9195899963333334 0.0
 O9 O 0.20788333299999998 0.9195899963333334
  0.3333333333333333
 O9 O 0.12545000033333334 0.7470766703333334 0.0
 O9 O 0.12545000033333334 0.7470766703333334
  0.3333333333333333
 O9 O 0.12545000033333334 0.9195899963333334 0.0
 O9 O 0.12545000033333334 0.9195899963333334
  0.3333333333333333
 O9 O 0.20788333299999998 0.7470766703333334 0.0
 O9 O 0.20788333299999998 0.7470766703333334
  0.3333333333333333
 O10 O 0.0 0.7421000003333333 0.0
 O10 O 0.0 0.7421000003333333 0.3333333333333333
 O10 O 0.3333333333333333 0.7421000003333333 0.0
 O10 O 0.3333333333333333 0.7421000003333333
  0.3333333333333333
 O10 O 0.0 0.9245666663333332 0.0
 O10 O 0.0 0.9245666663333332 0.3333333333333333
 O10 O 0.3333333333333333 0.9245666663333332 0.0
 O10 O 0.3333333333333333 0.9245666663333332
  0.3333333333333333
 O10 O 0.16666666666666666 0.9087666669999999 0.0
 O10 O 0.16666666666666666 0.9087666669999999
  0.3333333333333333
 O10 O 0.16666666666666666 0.7578999996666667 0.0
 O10 O 0.16666666666666666 0.7578999996666667
  0.3333333333333333
 O2 O 0.06349000333333334 0.7861799996666666
  -0.057636668333333335
 O2 O 0.06349000333333334 0.7861799996666666
  0.3909700016666667
 O2 O 0.26984333 0.880486667 -0.057636668333333335
 O2 O 0.26984333 0.880486667 0.3909700016666667
 O2 O 0.26984333 0.7861799996666666 -0.057636668333333335
 O2 O 0.26984333 0.7861799996666666 0.3909700016666667
 O2 O 0.06349000333333334 0.880486667 -0.057636668333333335
 O2 O 0.06349000333333334 0.880486667 0.3909700016666667
 O2 O 0.23015666999999998 0.9528466663333333
  -0.057636668333333335
 O2 O 0.23015666999999998 0.9528466663333333
  0.3909700016666667
 O2 O 0.10317666333333332 0.7138200003333333
  -0.057636668333333335
 O2 O 0.10317666333333332 0.7138200003333333
  0.3909700016666667
 O2 O 0.10317666333333332 0.9528466663333333
  -0.057636668333333335
 O2 O 0.10317666333333332 0.9528466663333333
  0.3909700016666667
 O2 O 0.23015666999999998 0.7138200003333333
  -0.057636668333333335
 O2 O 0.23015666999999998 0.7138200003333333
  0.3909700016666667
 O7 O 0.02645999933333333 0.7135733316666666
  -0.057820002333333335
 O7 O 0.02645999933333333 0.7135733316666666
  0.3911533356666667
 O7 O 0.306873334 0.9530933349999999 -0.057820002333333335
 O7 O 0.306873334 0.9530933349999999 0.3911533356666667
 O7 O 0.306873334 0.7135733316666666 -0.057820002333333335
 O7 O 0.306873334 0.7135733316666666 0.3911533356666667
 O7 O 0.02645999933333333 0.9530933349999999
  -0.057820002333333335
 O7 O 0.02645999933333333 0.9530933349999999
  0.3911533356666667
 O7 O 0.19312666599999997 0.8802399983333333
  -0.057820002333333335
 O7 O 0.19312666599999997 0.8802399983333333
  0.3911533356666667
 O7 O 0.14020666733333334 0.7864266683333333
  -0.057820002333333335
 O7 O 0.14020666733333334 0.7864266683333333
  0.3911533356666667
 O7 O 0.14020666733333334 0.8802399983333333
  -0.057820002333333335
 O7 O 0.14020666733333334 0.8802399983333333
  0.3911533356666667
 O7 O 0.19312666599999997 0.7864266683333333
  -0.057820002333333335
 O7 O 0.19312666599999997 0.7864266683333333
  0.3911533356666667
 Si1 Si 0.42298000066666663 0.695479999 0.09978000333333333
 Si1 Si 0.5770199993333334 0.9711866676666665 0.23355333
 Si1 Si 0.5770199993333334 0.9711866676666665
  0.09978000333333333
 Si1 Si 0.42298000066666663 0.695479999 0.23355333
 Si1 Si 0.5770199993333334 0.695479999 0.23355333
 Si1 Si 0.42298000066666663 0.9711866676666665
  0.09978000333333333
 Si1 Si 0.42298000066666663 0.9711866676666665 0.23355333
 Si1 Si 0.5770199993333334 0.695479999 0.09978000333333333
 Si1 Si 0.5896466673333334 0.8621466656666665
  0.09978000333333333
 Si1 Si 0.4103533326666666 0.804520001 0.23355333
 Si1 Si 0.4103533326666666 0.804520001 0.09978000333333333
 Si1 Si 0.5896466673333334 0.8621466656666665 0.23355333
 Si1 Si 0.4103533326666666 0.8621466656666665 0.23355333
 Si1 Si 0.5896466673333334 0.804520001 0.09978000333333333
 Si1 Si 0.5896466673333334 0.804520001 0.23355333
 Si1 Si 0.4103533326666666 0.8621466656666665
  0.09978000333333333
 Si2 Si 0.37357333299999995 0.6954333336666667
  0.09977666533333333
 Si2 Si 0.626426667 0.971233333 0.233556668
 Si2 Si 0.626426667 0.971233333 0.09977666533333333
 Si2 Si 0.37357333299999995 0.6954333336666667 0.233556668
 Si2 Si 0.626426667 0.6954333336666667 0.233556668
 Si2 Si 0.37357333299999995 0.971233333 0.09977666533333333
 Si2 Si 0.37357333299999995 0.971233333 0.233556668
 Si2 Si 0.626426667 0.6954333336666667 0.09977666533333333
 Si2 Si 0.5402399996666667 0.8621000003333332
  0.09977666533333333
 Si2 Si 0.4597600003333333 0.8045666663333333 0.233556668
 Si2 Si 0.4597600003333333 0.8045666663333333
  0.09977666533333333
 Si2 Si 0.5402399996666667 0.8621000003333332 0.233556668
 Si2 Si 0.4597600003333333 0.8621000003333332 0.233556668
 Si2 Si 0.5402399996666667 0.8045666663333333
  0.09977666533333333
 Si2 Si 0.5402399996666667 0.8045666663333333 0.233556668
 Si2 Si 0.4597600003333333 0.8621000003333332
  0.09977666533333333
 Si3 Si 0.39648333199999997 0.7685933313333333 0.0
 Si3 Si 0.39648333199999997 0.7685933313333333
  0.3333333333333333
 Si3 Si 0.6035166679999999 0.8980733353333332 0.0
 Si3 Si 0.6035166679999999 0.8980733353333332
  0.3333333333333333
 Si3 Si 0.6035166679999999 0.7685933313333333 0.0
 Si3 Si 0.6035166679999999 0.7685933313333333
  0.3333333333333333
 Si3 Si 0.39648333199999997 0.8980733353333332 0.0
 Si3 Si 0.39648333199999997 0.8980733353333332
  0.3333333333333333
 Si3 Si 0.5631499986666666 0.935259998 0.0
 Si3 Si 0.5631499986666666 0.935259998 0.3333333333333333
 Si3 Si 0.4368500013333333 0.7314066686666667 0.0
 Si3 Si 0.4368500013333333 0.7314066686666667
  0.3333333333333333
 Si3 Si 0.4368500013333333 0.935259998 0.0
 Si3 Si 0.4368500013333333 0.935259998 0.3333333333333333
 Si3 Si 0.5631499986666666 0.7314066686666667 0.0
 Si3 Si 0.5631499986666666 0.7314066686666667
  0.3333333333333333
 Si4 Si 0.35713999966666665 0.7307266643333332 0.0
 Si4 Si 0.35713999966666665 0.7307266643333332
  0.3333333333333333
 Si4 Si 0.6428600003333333 0.9359400023333333 0.0
 Si4 Si 0.6428600003333333 0.9359400023333333
  0.3333333333333333
 Si4 Si 0.6428600003333333 0.7307266643333332 0.0
 Si4 Si 0.6428600003333333 0.7307266643333332
  0.3333333333333333
 Si4 Si 0.35713999966666665 0.9359400023333333 0.0
 Si4 Si 0.35713999966666665 0.9359400023333333
  0.3333333333333333
 Si4 Si 0.5238066663333333 0.897393331 0.0
 Si4 Si 0.5238066663333333 0.897393331 0.3333333333333333
 Si4 Si 0.4761933336666666 0.7692733356666666 0.0
 Si4 Si 0.4761933336666666 0.7692733356666666
  0.3333333333333333
 Si4 Si 0.4761933336666666 0.897393331 0.0
 Si4 Si 0.4761933336666666 0.897393331 0.3333333333333333
 Si4 Si 0.5238066663333333 0.7692733356666666 0.0
 Si4 Si 0.5238066663333333 0.7692733356666666
  0.3333333333333333
 O1 O 0.398270001 0.703380001 0.09588000166666666
 O1 O 0.601729999 0.9632866656666665 0.23745333166666668
 O1 O 0.601729999 0.9632866656666665 0.09588000166666666
 O1 O 0.398270001 0.703380001 0.23745333166666668
 O1 O 0.601729999 0.703380001 0.23745333166666668
 O1 O 0.398270001 0.9632866656666665 0.09588000166666666
 O1 O 0.398270001 0.9632866656666665 0.23745333166666668
 O1 O 0.601729999 0.703380001 0.09588000166666666
 O1 O 0.5649366676666666 0.8700466676666667
  0.09588000166666666
 O1 O 0.43506333233333333 0.796619999 0.23745333166666668
 O1 O 0.43506333233333333 0.796619999 0.09588000166666666
 O1 O 0.5649366676666666 0.8700466676666667
  0.23745333166666668
 O1 O 0.43506333233333333 0.8700466676666667
  0.23745333166666668
 O1 O 0.5649366676666666 0.796619999 0.09588000166666666
 O1 O 0.5649366676666666 0.796619999 0.23745333166666668
 O1 O 0.43506333233333333 0.8700466676666667
  0.09588000166666666
 O2 O 0.4365099966666666 0.7138200003333333
  0.057636668333333335
 O2 O 0.5634900033333333 0.9528466663333333 0.275696665
 O2 O 0.5634900033333333 0.9528466663333333
  0.057636668333333335
 O2 O 0.4365099966666666 0.7138200003333333 0.275696665
 O2 O 0.5634900033333333 0.7138200003333333 0.275696665
 O2 O 0.4365099966666666 0.9528466663333333
  0.057636668333333335
 O2 O 0.4365099966666666 0.9528466663333333 0.275696665
 O2 O 0.5634900033333333 0.7138200003333333
  0.057636668333333335
 O2 O 0.6031766633333333 0.880486667 0.057636668333333335
 O2 O 0.39682333666666664 0.7861799996666666 0.275696665
 O2 O 0.39682333666666664 0.7861799996666666
  0.057636668333333335
 O2 O 0.6031766633333333 0.880486667 0.275696665
 O2 O 0.39682333666666664 0.880486667 0.275696665
 O2 O 0.6031766633333333 0.7861799996666666
  0.057636668333333335
 O2 O 0.6031766633333333 0.7861799996666666 0.275696665
 O2 O 0.39682333666666664 0.880486667 0.057636668333333335
 O3 O 0.42577667033333333 0.6666666666666666 0.079156667
 O3 O 0.42577667033333333 1.0 0.079156667
 O3 O 0.5742233296666667 0.6666666666666666 0.2541766663333333
 O3 O 0.5742233296666667 1.0 0.2541766663333333
 O3 O 0.5742233296666667 0.6666666666666666 0.079156667
 O3 O 0.5742233296666667 1.0 0.079156667
 O3 O 0.42577667033333333 0.6666666666666666
  0.2541766663333333
 O3 O 0.42577667033333333 1.0 0.2541766663333333
 O3 O 0.592443337 0.8333333333333333 0.079156667
 O3 O 0.407556663 0.8333333333333333 0.2541766663333333
 O3 O 0.407556663 0.8333333333333333 0.079156667
 O3 O 0.592443337 0.8333333333333333 0.2541766663333333
 O4 O 0.430979997 0.6983933323333333 0.16666666666666666
 O4 O 0.569020003 0.9682733343333332 0.16666666666666666
 O4 O 0.569020003 0.6983933323333333 0.16666666666666666
 O4 O 0.430979997 0.9682733343333332 0.16666666666666666
 O4 O 0.5976466636666666 0.8650599989999999
  0.16666666666666666
 O4 O 0.4023533363333333 0.8016066676666667
  0.16666666666666666
 O4 O 0.4023533363333333 0.8650599989999999
  0.16666666666666666
 O4 O 0.5976466636666666 0.8016066676666667
  0.16666666666666666
 O5 O 0.3708633333333333 0.6666666666666666 0.078759998
 O5 O 0.3708633333333333 1.0 0.078759998
 O5 O 0.6291366666666667 0.6666666666666666 0.2545733353333333
 O5 O 0.6291366666666667 1.0 0.2545733353333333
 O5 O 0.6291366666666667 0.6666666666666666 0.078759998
 O5 O 0.6291366666666667 1.0 0.078759998
 O5 O 0.3708633333333333 0.6666666666666666 0.2545733353333333
 O5 O 0.3708633333333333 1.0 0.2545733353333333
 O5 O 0.53753 0.8333333333333333 0.078759998
 O5 O 0.46246999999999994 0.8333333333333333
  0.2545733353333333
 O5 O 0.46246999999999994 0.8333333333333333 0.078759998
 O5 O 0.53753 0.8333333333333333 0.2545733353333333
 O6 O 0.36554666599999996 0.6981666659999999
  0.16666666666666666
 O6 O 0.634453334 0.9685000006666666 0.16666666666666666
 O6 O 0.634453334 0.6981666659999999 0.16666666666666666
 O6 O 0.36554666599999996 0.9685000006666666
  0.16666666666666666
 O6 O 0.5322133326666667 0.8648333326666666
  0.16666666666666666
 O6 O 0.4677866673333333 0.8018333339999999
  0.16666666666666666
 O6 O 0.4677866673333333 0.8648333326666666
  0.16666666666666666
 O6 O 0.5322133326666667 0.8018333339999999
  0.16666666666666666
 O7 O 0.35979333266666663 0.7135733316666666
  0.057820002333333335
 O7 O 0.6402066673333333 0.9530933349999999
  0.27551333100000003
 O7 O 0.6402066673333333 0.9530933349999999
  0.057820002333333335
 O7 O 0.35979333266666663 0.7135733316666666
  0.27551333100000003
 O7 O 0.6402066673333333 0.7135733316666666
  0.27551333100000003
 O7 O 0.35979333266666663 0.9530933349999999
  0.057820002333333335
 O7 O 0.35979333266666663 0.9530933349999999
  0.27551333100000003
 O7 O 0.6402066673333333 0.7135733316666666
  0.057820002333333335
 O7 O 0.5264599993333333 0.8802399983333333
  0.057820002333333335
 O7 O 0.4735400006666667 0.7864266683333333
  0.27551333100000003
 O7 O 0.4735400006666667 0.7864266683333333
  0.057820002333333335
 O7 O 0.5264599993333333 0.8802399983333333
  0.27551333100000003
 O7 O 0.4735400006666667 0.8802399983333333
  0.27551333100000003
 O7 O 0.5264599993333333 0.7864266683333333
  0.057820002333333335
 O7 O 0.5264599993333333 0.7864266683333333
  0.27551333100000003
 O7 O 0.4735400006666667 0.8802399983333333
  0.057820002333333335
 O8 O 0.41666666666666663 0.75 0.0
 O8 O 0.41666666666666663 0.75 0.3333333333333333
 O8 O 0.5833333333333333 0.9166666666666665 0.0
 O8 O 0.5833333333333333 0.9166666666666665 0.3333333333333333
 O8 O 0.5833333333333333 0.75 0.0
 O8 O 0.5833333333333333 0.75 0.3333333333333333
 O8 O 0.41666666666666663 0.9166666666666665 0.0
 O8 O 0.41666666666666663 0.9166666666666665
  0.3333333333333333
 O9 O 0.37454999966666663 0.7529233296666666 0.0
 O9 O 0.37454999966666663 0.7529233296666666
  0.3333333333333333
 O9 O 0.6254500003333333 0.9137433369999999 0.0
 O9 O 0.6254500003333333 0.9137433369999999 0.3333333333333333
 O9 O 0.6254500003333333 0.7529233296666666 0.0
 O9 O 0.6254500003333333 0.7529233296666666 0.3333333333333333
 O9 O 0.37454999966666663 0.9137433369999999 0.0
 O9 O 0.37454999966666663 0.9137433369999999
  0.3333333333333333
 O9 O 0.5412166663333333 0.9195899963333334 0.0
 O9 O 0.5412166663333333 0.9195899963333334 0.3333333333333333
 O9 O 0.4587833336666667 0.7470766703333334 0.0
 O9 O 0.4587833336666667 0.7470766703333334 0.3333333333333333
 O9 O 0.4587833336666667 0.9195899963333334 0.0
 O9 O 0.4587833336666667 0.9195899963333334 0.3333333333333333
 O9 O 0.5412166663333333 0.7470766703333334 0.0
 O9 O 0.5412166663333333 0.7470766703333334 0.3333333333333333
 O10 O 0.3333333333333333 0.7421000003333333 0.0
 O10 O 0.3333333333333333 0.7421000003333333
  0.3333333333333333
 O10 O 0.6666666666666666 0.7421000003333333 0.0
 O10 O 0.6666666666666666 0.7421000003333333
  0.3333333333333333
 O10 O 0.3333333333333333 0.9245666663333332 0.0
 O10 O 0.3333333333333333 0.9245666663333332
  0.3333333333333333
 O10 O 0.6666666666666666 0.9245666663333332 0.0
 O10 O 0.6666666666666666 0.9245666663333332
  0.3333333333333333
 O10 O 0.5 0.9087666669999999 0.0
 O10 O 0.5 0.9087666669999999 0.3333333333333333
 O10 O 0.5 0.7578999996666667 0.0
 O10 O 0.5 0.7578999996666667 0.3333333333333333
 O2 O 0.39682333666666664 0.7861799996666666
  -0.057636668333333335
 O2 O 0.39682333666666664 0.7861799996666666
  0.3909700016666667
 O2 O 0.6031766633333333 0.880486667 -0.057636668333333335
 O2 O 0.6031766633333333 0.880486667 0.3909700016666667
 O2 O 0.6031766633333333 0.7861799996666666
  -0.057636668333333335
 O2 O 0.6031766633333333 0.7861799996666666 0.3909700016666667
 O2 O 0.39682333666666664 0.880486667 -0.057636668333333335
 O2 O 0.39682333666666664 0.880486667 0.3909700016666667
 O2 O 0.5634900033333333 0.9528466663333333
  -0.057636668333333335
 O2 O 0.5634900033333333 0.9528466663333333 0.3909700016666667
 O2 O 0.4365099966666666 0.7138200003333333
  -0.057636668333333335
 O2 O 0.4365099966666666 0.7138200003333333 0.3909700016666667
 O2 O 0.4365099966666666 0.9528466663333333
  -0.057636668333333335
 O2 O 0.4365099966666666 0.9528466663333333 0.3909700016666667
 O2 O 0.5634900033333333 0.7138200003333333
  -0.057636668333333335
 O2 O 0.5634900033333333 0.7138200003333333 0.3909700016666667
 O7 O 0.35979333266666663 0.7135733316666666
  -0.057820002333333335
 O7 O 0.35979333266666663 0.7135733316666666
  0.3911533356666667
 O7 O 0.6402066673333333 0.9530933349999999
  -0.057820002333333335
 O7 O 0.6402066673333333 0.9530933349999999 0.3911533356666667
 O7 O 0.6402066673333333 0.7135733316666666
  -0.057820002333333335
 O7 O 0.6402066673333333 0.7135733316666666 0.3911533356666667
 O7 O 0.35979333266666663 0.9530933349999999
  -0.057820002333333335
 O7 O 0.35979333266666663 0.9530933349999999
  0.3911533356666667
 O7 O 0.5264599993333333 0.8802399983333333
  -0.057820002333333335
 O7 O 0.5264599993333333 0.8802399983333333 0.3911533356666667
 O7 O 0.4735400006666667 0.7864266683333333
  -0.057820002333333335
 O7 O 0.4735400006666667 0.7864266683333333 0.3911533356666667
 O7 O 0.4735400006666667 0.8802399983333333
  -0.057820002333333335
 O7 O 0.4735400006666667 0.8802399983333333 0.3911533356666667
 O7 O 0.5264599993333333 0.7864266683333333
  -0.057820002333333335
 O7 O 0.5264599993333333 0.7864266683333333 0.3911533356666667
 Si1 Si 0.7563133339999999 0.695479999 0.09978000333333333
 Si1 Si 0.9103533326666666 0.9711866676666665 0.23355333
 Si1 Si 0.9103533326666666 0.9711866676666665
  0.09978000333333333
 Si1 Si 0.7563133339999999 0.695479999 0.23355333
 Si1 Si 0.9103533326666666 0.695479999 0.23355333
 Si1 Si 0.7563133339999999 0.9711866676666665
  0.09978000333333333
 Si1 Si 0.7563133339999999 0.9711866676666665 0.23355333
 Si1 Si 0.9103533326666666 0.695479999 0.09978000333333333
 Si1 Si 0.9229800006666666 0.8621466656666665
  0.09978000333333333
 Si1 Si 0.7436866659999999 0.804520001 0.23355333
 Si1 Si 0.7436866659999999 0.804520001 0.09978000333333333
 Si1 Si 0.9229800006666666 0.8621466656666665 0.23355333
 Si1 Si 0.7436866659999999 0.8621466656666665 0.23355333
 Si1 Si 0.9229800006666666 0.804520001 0.09978000333333333
 Si1 Si 0.9229800006666666 0.804520001 0.23355333
 Si1 Si 0.7436866659999999 0.8621466656666665
  0.09978000333333333
 Si2 Si 0.7069066663333332 0.6954333336666667
  0.09977666533333333
 Si2 Si 0.9597600003333333 0.971233333 0.233556668
 Si2 Si 0.9597600003333333 0.971233333 0.09977666533333333
 Si2 Si 0.7069066663333332 0.6954333336666667 0.233556668
 Si2 Si 0.9597600003333333 0.6954333336666667 0.233556668
 Si2 Si 0.7069066663333332 0.971233333 0.09977666533333333
 Si2 Si 0.7069066663333332 0.971233333 0.233556668
 Si2 Si 0.9597600003333333 0.6954333336666667
  0.09977666533333333
 Si2 Si 0.873573333 0.8621000003333332 0.09977666533333333
 Si2 Si 0.7930933336666666 0.8045666663333333 0.233556668
 Si2 Si 0.7930933336666666 0.8045666663333333
  0.09977666533333333
 Si2 Si 0.873573333 0.8621000003333332 0.233556668
 Si2 Si 0.7930933336666666 0.8621000003333332 0.233556668
 Si2 Si 0.873573333 0.8045666663333333 0.09977666533333333
 Si2 Si 0.873573333 0.8045666663333333 0.233556668
 Si2 Si 0.7930933336666666 0.8621000003333332
  0.09977666533333333
 Si3 Si 0.7298166653333333 0.7685933313333333 0.0
 Si3 Si 0.7298166653333333 0.7685933313333333
  0.3333333333333333
 Si3 Si 0.9368500013333332 0.8980733353333332 0.0
 Si3 Si 0.9368500013333332 0.8980733353333332
  0.3333333333333333
 Si3 Si 0.9368500013333332 0.7685933313333333 0.0
 Si3 Si 0.9368500013333332 0.7685933313333333
  0.3333333333333333
 Si3 Si 0.7298166653333333 0.8980733353333332 0.0
 Si3 Si 0.7298166653333333 0.8980733353333332
  0.3333333333333333
 Si3 Si 0.8964833319999999 0.935259998 0.0
 Si3 Si 0.8964833319999999 0.935259998 0.3333333333333333
 Si3 Si 0.7701833346666667 0.7314066686666667 0.0
 Si3 Si 0.7701833346666667 0.7314066686666667
  0.3333333333333333
 Si3 Si 0.7701833346666667 0.935259998 0.0
 Si3 Si 0.7701833346666667 0.935259998 0.3333333333333333
 Si3 Si 0.8964833319999999 0.7314066686666667 0.0
 Si3 Si 0.8964833319999999 0.7314066686666667
  0.3333333333333333
 Si4 Si 0.6904733329999999 0.7307266643333332 0.0
 Si4 Si 0.6904733329999999 0.7307266643333332
  0.3333333333333333
 Si4 Si 0.9761933336666666 0.9359400023333333 0.0
 Si4 Si 0.9761933336666666 0.9359400023333333
  0.3333333333333333
 Si4 Si 0.9761933336666666 0.7307266643333332 0.0
 Si4 Si 0.9761933336666666 0.7307266643333332
  0.3333333333333333
 Si4 Si 0.6904733329999999 0.9359400023333333 0.0
 Si4 Si 0.6904733329999999 0.9359400023333333
  0.3333333333333333
 Si4 Si 0.8571399996666667 0.897393331 0.0
 Si4 Si 0.8571399996666667 0.897393331 0.3333333333333333
 Si4 Si 0.8095266669999999 0.7692733356666666 0.0
 Si4 Si 0.8095266669999999 0.7692733356666666
  0.3333333333333333
 Si4 Si 0.8095266669999999 0.897393331 0.0
 Si4 Si 0.8095266669999999 0.897393331 0.3333333333333333
 Si4 Si 0.8571399996666667 0.7692733356666666 0.0
 Si4 Si 0.8571399996666667 0.7692733356666666
  0.3333333333333333
 O1 O 0.7316033343333332 0.703380001 0.09588000166666666
 O1 O 0.9350633323333333 0.9632866656666665
  0.23745333166666668
 O1 O 0.9350633323333333 0.9632866656666665
  0.09588000166666666
 O1 O 0.7316033343333332 0.703380001 0.23745333166666668
 O1 O 0.9350633323333333 0.703380001 0.23745333166666668
 O1 O 0.7316033343333332 0.9632866656666665
  0.09588000166666666
 O1 O 0.7316033343333332 0.9632866656666665
  0.23745333166666668
 O1 O 0.9350633323333333 0.703380001 0.09588000166666666
 O1 O 0.898270001 0.8700466676666667 0.09588000166666666
 O1 O 0.7683966656666666 0.796619999 0.23745333166666668
 O1 O 0.7683966656666666 0.796619999 0.09588000166666666
 O1 O 0.898270001 0.8700466676666667 0.23745333166666668
 O1 O 0.7683966656666666 0.8700466676666667
  0.23745333166666668
 O1 O 0.898270001 0.796619999 0.09588000166666666
 O1 O 0.898270001 0.796619999 0.23745333166666668
 O1 O 0.7683966656666666 0.8700466676666667
  0.09588000166666666
 O2 O 0.7698433299999999 0.7138200003333333
  0.057636668333333335
 O2 O 0.8968233366666667 0.9528466663333333 0.275696665
 O2 O 0.8968233366666667 0.9528466663333333
  0.057636668333333335
 O2 O 0.7698433299999999 0.7138200003333333 0.275696665
 O2 O 0.8968233366666667 0.7138200003333333 0.275696665
 O2 O 0.7698433299999999 0.9528466663333333
  0.057636668333333335
 O2 O 0.7698433299999999 0.9528466663333333 0.275696665
 O2 O 0.8968233366666667 0.7138200003333333
  0.057636668333333335
 O2 O 0.9365099966666666 0.880486667 0.057636668333333335
 O2 O 0.73015667 0.7861799996666666 0.275696665
 O2 O 0.73015667 0.7861799996666666 0.057636668333333335
 O2 O 0.9365099966666666 0.880486667 0.275696665
 O2 O 0.73015667 0.880486667 0.275696665
 O2 O 0.9365099966666666 0.7861799996666666
  0.057636668333333335
 O2 O 0.9365099966666666 0.7861799996666666 0.275696665
 O2 O 0.73015667 0.880486667 0.057636668333333335
 O3 O 0.7591100036666667 0.6666666666666666 0.079156667
 O3 O 0.7591100036666667 1.0 0.079156667
 O3 O 0.907556663 0.6666666666666666 0.2541766663333333
 O3 O 0.907556663 1.0 0.2541766663333333
 O3 O 0.907556663 0.6666666666666666 0.079156667
 O3 O 0.907556663 1.0 0.079156667
 O3 O 0.7591100036666667 0.6666666666666666 0.2541766663333333
 O3 O 0.7591100036666667 1.0 0.2541766663333333
 O3 O 0.9257766703333332 0.8333333333333333 0.079156667
 O3 O 0.7408899963333333 0.8333333333333333 0.2541766663333333
 O3 O 0.7408899963333333 0.8333333333333333 0.079156667
 O3 O 0.9257766703333332 0.8333333333333333 0.2541766663333333
 O4 O 0.7643133303333334 0.6983933323333333
  0.16666666666666666
 O4 O 0.9023533363333334 0.9682733343333332
  0.16666666666666666
 O4 O 0.9023533363333334 0.6983933323333333
  0.16666666666666666
 O4 O 0.7643133303333334 0.9682733343333332
  0.16666666666666666
 O4 O 0.9309799969999999 0.8650599989999999
  0.16666666666666666
 O4 O 0.7356866696666666 0.8016066676666667
  0.16666666666666666
 O4 O 0.7356866696666666 0.8650599989999999
  0.16666666666666666
 O4 O 0.9309799969999999 0.8016066676666667
  0.16666666666666666
 O5 O 0.7041966666666666 0.6666666666666666 0.078759998
 O5 O 0.7041966666666666 1.0 0.078759998
 O5 O 0.9624699999999999 0.6666666666666666 0.2545733353333333
 O5 O 0.9624699999999999 1.0 0.2545733353333333
 O5 O 0.9624699999999999 0.6666666666666666 0.078759998
 O5 O 0.9624699999999999 1.0 0.078759998
 O5 O 0.7041966666666666 0.6666666666666666 0.2545733353333333
 O5 O 0.7041966666666666 1.0 0.2545733353333333
 O5 O 0.8708633333333333 0.8333333333333333 0.078759998
 O5 O 0.7958033333333332 0.8333333333333333 0.2545733353333333
 O5 O 0.7958033333333332 0.8333333333333333 0.078759998
 O5 O 0.8708633333333333 0.8333333333333333 0.2545733353333333
 O6 O 0.6988799993333332 0.6981666659999999
  0.16666666666666666
 O6 O 0.9677866673333333 0.9685000006666666
  0.16666666666666666
 O6 O 0.9677866673333333 0.6981666659999999
  0.16666666666666666
 O6 O 0.6988799993333332 0.9685000006666666
  0.16666666666666666
 O6 O 0.865546666 0.8648333326666666 0.16666666666666666
 O6 O 0.8011200006666666 0.8018333339999999
  0.16666666666666666
 O6 O 0.8011200006666666 0.8648333326666666
  0.16666666666666666
 O6 O 0.865546666 0.8018333339999999 0.16666666666666666
 O7 O 0.693126666 0.7135733316666666 0.057820002333333335
 O7 O 0.9735400006666666 0.9530933349999999
  0.27551333100000003
 O7 O 0.9735400006666666 0.9530933349999999
  0.057820002333333335
 O7 O 0.693126666 0.7135733316666666 0.27551333100000003
 O7 O 0.9735400006666666 0.7135733316666666
  0.27551333100000003
 O7 O 0.693126666 0.9530933349999999 0.057820002333333335
 O7 O 0.693126666 0.9530933349999999 0.27551333100000003
 O7 O 0.9735400006666666 0.7135733316666666
  0.057820002333333335
 O7 O 0.8597933326666667 0.8802399983333333
  0.057820002333333335
 O7 O 0.806873334 0.7864266683333333 0.27551333100000003
 O7 O 0.806873334 0.7864266683333333 0.057820002333333335
 O7 O 0.8597933326666667 0.8802399983333333
  0.27551333100000003
 O7 O 0.806873334 0.8802399983333333 0.27551333100000003
 O7 O 0.8597933326666667 0.7864266683333333
  0.057820002333333335
 O7 O 0.8597933326666667 0.7864266683333333
  0.27551333100000003
 O7 O 0.806873334 0.8802399983333333 0.057820002333333335
 O8 O 0.75 0.75 0.0
 O8 O 0.75 0.75 0.3333333333333333
 O8 O 0.9166666666666665 0.9166666666666665 0.0
 O8 O 0.9166666666666665 0.9166666666666665 0.3333333333333333
 O8 O 0.9166666666666665 0.75 0.0
 O8 O 0.9166666666666665 0.75 0.3333333333333333
 O8 O 0.75 0.9166666666666665 0.0
 O8 O 0.75 0.9166666666666665 0.3333333333333333
 O9 O 0.707883333 0.7529233296666666 0.0
 O9 O 0.707883333 0.7529233296666666 0.3333333333333333
 O9 O 0.9587833336666667 0.9137433369999999 0.0
 O9 O 0.9587833336666667 0.9137433369999999 0.3333333333333333
 O9 O 0.9587833336666667 0.7529233296666666 0.0
 O9 O 0.9587833336666667 0.7529233296666666 0.3333333333333333
 O9 O 0.707883333 0.9137433369999999 0.0
 O9 O 0.707883333 0.9137433369999999 0.3333333333333333
 O9 O 0.8745499996666666 0.9195899963333334 0.0
 O9 O 0.8745499996666666 0.9195899963333334 0.3333333333333333
 O9 O 0.7921166669999999 0.7470766703333334 0.0
 O9 O 0.7921166669999999 0.7470766703333334 0.3333333333333333
 O9 O 0.7921166669999999 0.9195899963333334 0.0
 O9 O 0.7921166669999999 0.9195899963333334 0.3333333333333333
 O9 O 0.8745499996666666 0.7470766703333334 0.0
 O9 O 0.8745499996666666 0.7470766703333334 0.3333333333333333
 O10 O 0.6666666666666666 0.7421000003333333 0.0
 O10 O 0.6666666666666666 0.7421000003333333
  0.3333333333333333
 O10 O 1.0 0.7421000003333333 0.0
 O10 O 1.0 0.7421000003333333 0.3333333333333333
 O10 O 0.6666666666666666 0.9245666663333332 0.0
 O10 O 0.6666666666666666 0.9245666663333332
  0.3333333333333333
 O10 O 1.0 0.9245666663333332 0.0
 O10 O 1.0 0.9245666663333332 0.3333333333333333
 O10 O 0.8333333333333333 0.9087666669999999 0.0
 O10 O 0.8333333333333333 0.9087666669999999
  0.3333333333333333
 O10 O 0.8333333333333333 0.7578999996666667 0.0
 O10 O 0.8333333333333333 0.7578999996666667
  0.3333333333333333
 O2 O 0.73015667 0.7861799996666666 -0.057636668333333335
 O2 O 0.73015667 0.7861799996666666 0.3909700016666667
 O2 O 0.9365099966666666 0.880486667 -0.057636668333333335
 O2 O 0.9365099966666666 0.880486667 0.3909700016666667
 O2 O 0.9365099966666666 0.7861799996666666
  -0.057636668333333335
 O2 O 0.9365099966666666 0.7861799996666666 0.3909700016666667
 O2 O 0.73015667 0.880486667 -0.057636668333333335
 O2 O 0.73015667 0.880486667 0.3909700016666667
 O2 O 0.8968233366666667 0.9528466663333333
  -0.057636668333333335
 O2 O 0.8968233366666667 0.9528466663333333 0.3909700016666667
 O2 O 0.7698433299999999 0.7138200003333333
  -0.057636668333333335
 O2 O 0.7698433299999999 0.7138200003333333 0.3909700016666667
 O2 O 0.7698433299999999 0.9528466663333333
  -0.057636668333333335
 O2 O 0.7698433299999999 0.9528466663333333 0.3909700016666667
 O2 O 0.8968233366666667 0.7138200003333333
  -0.057636668333333335
 O2 O 0.8968233366666667 0.7138200003333333 0.3909700016666667
 O7 O 0.693126666 0.7135733316666666 -0.057820002333333335
 O7 O 0.693126666 0.7135733316666666 0.3911533356666667
 O7 O 0.9735400006666666 0.9530933349999999
  -0.057820002333333335
 O7 O 0.9735400006666666 0.9530933349999999 0.3911533356666667
 O7 O 0.9735400006666666 0.7135733316666666
  -0.057820002333333335
 O7 O 0.9735400006666666 0.7135733316666666 0.3911533356666667
 O7 O 0.693126666 0.9530933349999999 -0.057820002333333335
 O7 O 0.693126666 0.9530933349999999 0.3911533356666667
 O7 O 0.8597933326666667 0.8802399983333333
  -0.057820002333333335
 O7 O 0.8597933326666667 0.8802399983333333 0.3911533356666667
 O7 O 0.806873334 0.7864266683333333 -0.057820002333333335
 O7 O 0.806873334 0.7864266683333333 0.3911533356666667
 O7 O 0.806873334 0.8802399983333333 -0.057820002333333335
 O7 O 0.806873334 0.8802399983333333 0.3911533356666667
 O7 O 0.8597933326666667 0.7864266683333333
  -0.057820002333333335
 O7 O 0.8597933326666667 0.7864266683333333 0.3911533356666667
 Si1 Si 0.08964666733333333 0.028813332333333334
  0.4331133366666666
 Si1 Si 0.243686666 0.304520001 0.5668866633333334
 Si1 Si 0.243686666 0.304520001 0.4331133366666666
 Si1 Si 0.08964666733333333 0.028813332333333334
  0.5668866633333334
 Si1 Si 0.243686666 0.028813332333333334 0.5668866633333334
 Si1 Si 0.08964666733333333 0.304520001 0.4331133366666666
 Si1 Si 0.08964666733333333 0.304520001 0.5668866633333334
 Si1 Si 0.243686666 0.028813332333333334 0.4331133366666666
 Si1 Si 0.256313334 0.19547999900000002 0.4331133366666666
 Si1 Si 0.07701999933333332 0.13785333433333333
  0.5668866633333334
 Si1 Si 0.07701999933333332 0.13785333433333333
  0.4331133366666666
 Si1 Si 0.256313334 0.19547999900000002 0.5668866633333334
 Si1 Si 0.07701999933333332 0.19547999900000002
  0.5668866633333334
 Si1 Si 0.256313334 0.13785333433333333 0.4331133366666666
 Si1 Si 0.256313334 0.13785333433333333 0.5668866633333334
 Si1 Si 0.07701999933333332 0.19547999900000002
  0.4331133366666666
 Si2 Si 0.040239999666666665 0.028766667 0.43310999866666666
 Si2 Si 0.2930933336666667 0.30456666633333335
  0.5668900013333333
 Si2 Si 0.2930933336666667 0.30456666633333335
  0.43310999866666666
 Si2 Si 0.040239999666666665 0.028766667 0.5668900013333333
 Si2 Si 0.2930933336666667 0.028766667 0.5668900013333333
 Si2 Si 0.040239999666666665 0.30456666633333335
  0.43310999866666666
 Si2 Si 0.040239999666666665 0.30456666633333335
  0.5668900013333333
 Si2 Si 0.2930933336666667 0.028766667 0.43310999866666666
 Si2 Si 0.20690666633333332 0.19543333366666668
  0.43310999866666666
 Si2 Si 0.126426667 0.13789999966666666 0.5668900013333333
 Si2 Si 0.126426667 0.13789999966666666 0.43310999866666666
 Si2 Si 0.20690666633333332 0.19543333366666668
  0.5668900013333333
 Si2 Si 0.126426667 0.19543333366666668 0.5668900013333333
 Si2 Si 0.20690666633333332 0.13789999966666666
  0.43310999866666666
 Si2 Si 0.20690666633333332 0.13789999966666666
  0.5668900013333333
 Si2 Si 0.126426667 0.19543333366666668 0.43310999866666666
 Si3 Si 0.06314999866666667 0.10192666466666667
  0.3333333333333333
 Si3 Si 0.06314999866666667 0.10192666466666667
  0.6666666666666666
 Si3 Si 0.27018333466666666 0.23140666866666668
  0.3333333333333333
 Si3 Si 0.27018333466666666 0.23140666866666668
  0.6666666666666666
 Si3 Si 0.27018333466666666 0.10192666466666667
  0.3333333333333333
 Si3 Si 0.27018333466666666 0.10192666466666667
  0.6666666666666666
 Si3 Si 0.06314999866666667 0.23140666866666668
  0.3333333333333333
 Si3 Si 0.06314999866666667 0.23140666866666668
  0.6666666666666666
 Si3 Si 0.22981666533333334 0.26859333133333335
  0.3333333333333333
 Si3 Si 0.22981666533333334 0.26859333133333335
  0.6666666666666666
 Si3 Si 0.10351666799999999 0.064740002 0.3333333333333333
 Si3 Si 0.10351666799999999 0.064740002 0.6666666666666666
 Si3 Si 0.10351666799999999 0.26859333133333335
  0.3333333333333333
 Si3 Si 0.10351666799999999 0.26859333133333335
  0.6666666666666666
 Si3 Si 0.22981666533333334 0.064740002 0.3333333333333333
 Si3 Si 0.22981666533333334 0.064740002 0.6666666666666666
 Si4 Si 0.023806666333333334 0.06405999766666666
  0.3333333333333333
 Si4 Si 0.023806666333333334 0.06405999766666666
  0.6666666666666666
 Si4 Si 0.30952666700000003 0.26927333566666667
  0.3333333333333333
 Si4 Si 0.30952666700000003 0.26927333566666667
  0.6666666666666666
 Si4 Si 0.30952666700000003 0.06405999766666666
  0.3333333333333333
 Si4 Si 0.30952666700000003 0.06405999766666666
  0.6666666666666666
 Si4 Si 0.023806666333333334 0.26927333566666667
  0.3333333333333333
 Si4 Si 0.023806666333333334 0.26927333566666667
  0.6666666666666666
 Si4 Si 0.190473333 0.23072666433333333 0.3333333333333333
 Si4 Si 0.190473333 0.23072666433333333 0.6666666666666666
 Si4 Si 0.14286000033333332 0.102606669 0.3333333333333333
 Si4 Si 0.14286000033333332 0.102606669 0.6666666666666666
 Si4 Si 0.14286000033333332 0.23072666433333333
  0.3333333333333333
 Si4 Si 0.14286000033333332 0.23072666433333333
  0.6666666666666666
 Si4 Si 0.190473333 0.102606669 0.3333333333333333
 Si4 Si 0.190473333 0.102606669 0.6666666666666666
 O1 O 0.06493666766666667 0.03671333433333333 0.429213335
 O1 O 0.2683966656666667 0.29661999899999997 0.570786665
 O1 O 0.2683966656666667 0.29661999899999997 0.429213335
 O1 O 0.06493666766666667 0.03671333433333333 0.570786665
 O1 O 0.2683966656666667 0.03671333433333333 0.570786665
 O1 O 0.06493666766666667 0.29661999899999997 0.429213335
 O1 O 0.06493666766666667 0.29661999899999997 0.570786665
 O1 O 0.2683966656666667 0.03671333433333333 0.429213335
 O1 O 0.23160333433333333 0.203380001 0.429213335
 O1 O 0.101729999 0.12995333233333334 0.570786665
 O1 O 0.101729999 0.12995333233333334 0.429213335
 O1 O 0.23160333433333333 0.203380001 0.570786665
 O1 O 0.101729999 0.203380001 0.570786665
 O1 O 0.23160333433333333 0.12995333233333334 0.429213335
 O1 O 0.23160333433333333 0.12995333233333334 0.570786665
 O1 O 0.101729999 0.203380001 0.429213335
 O2 O 0.10317666333333332 0.047153333666666665
  0.3909700016666666
 O2 O 0.23015666999999998 0.2861799996666667
  0.6090299983333334
 O2 O 0.23015666999999998 0.2861799996666667
  0.3909700016666666
 O2 O 0.10317666333333332 0.047153333666666665
  0.6090299983333334
 O2 O 0.23015666999999998 0.047153333666666665
  0.6090299983333334
 O2 O 0.10317666333333332 0.2861799996666667
  0.3909700016666666
 O2 O 0.10317666333333332 0.2861799996666667
  0.6090299983333334
 O2 O 0.23015666999999998 0.047153333666666665
  0.3909700016666666
 O2 O 0.26984333 0.21382000033333334 0.3909700016666666
 O2 O 0.06349000333333334 0.119513333 0.6090299983333334
 O2 O 0.06349000333333334 0.119513333 0.3909700016666666
 O2 O 0.26984333 0.21382000033333334 0.6090299983333334
 O2 O 0.06349000333333334 0.21382000033333334
  0.6090299983333334
 O2 O 0.26984333 0.119513333 0.3909700016666666
 O2 O 0.26984333 0.119513333 0.6090299983333334
 O2 O 0.06349000333333334 0.21382000033333334
  0.3909700016666666
 O3 O 0.092443337 0.0 0.41249000033333333
 O3 O 0.092443337 0.3333333333333333 0.41249000033333333
 O3 O 0.24088999633333333 0.0 0.5875099996666666
 O3 O 0.24088999633333333 0.3333333333333333
  0.5875099996666666
 O3 O 0.24088999633333333 0.0 0.41249000033333333
 O3 O 0.24088999633333333 0.3333333333333333
  0.41249000033333333
 O3 O 0.092443337 0.0 0.5875099996666666
 O3 O 0.092443337 0.3333333333333333 0.5875099996666666
 O3 O 0.25911000366666664 0.16666666666666666
  0.41249000033333333
 O3 O 0.07422332966666667 0.16666666666666666
  0.5875099996666666
 O3 O 0.07422332966666667 0.16666666666666666
  0.41249000033333333
 O3 O 0.25911000366666664 0.16666666666666666
  0.5875099996666666
 O4 O 0.09764666366666667 0.03172666566666667 0.5
 O4 O 0.23568666966666665 0.30160666766666666 0.5
 O4 O 0.23568666966666665 0.03172666566666667 0.5
 O4 O 0.09764666366666667 0.30160666766666666 0.5
 O4 O 0.2643133303333333 0.19839333233333334 0.5
 O4 O 0.069020003 0.134940001 0.5
 O4 O 0.069020003 0.19839333233333334 0.5
 O4 O 0.2643133303333333 0.134940001 0.5
 O5 O 0.03753 0.0 0.4120933313333333
 O5 O 0.03753 0.3333333333333333 0.4120933313333333
 O5 O 0.29580333333333336 0.0 0.5879066686666666
 O5 O 0.29580333333333336 0.3333333333333333
  0.5879066686666666
 O5 O 0.29580333333333336 0.0 0.4120933313333333
 O5 O 0.29580333333333336 0.3333333333333333
  0.4120933313333333
 O5 O 0.03753 0.0 0.5879066686666666
 O5 O 0.03753 0.3333333333333333 0.5879066686666666
 O5 O 0.20419666666666667 0.16666666666666666
  0.4120933313333333
 O5 O 0.12913666666666665 0.16666666666666666
  0.5879066686666666
 O5 O 0.12913666666666665 0.16666666666666666
  0.4120933313333333
 O5 O 0.20419666666666667 0.16666666666666666
  0.5879066686666666
 O6 O 0.03221333266666667 0.031499999333333334 0.5
 O6 O 0.30112000066666667 0.301833334 0.5
 O6 O 0.30112000066666667 0.031499999333333334 0.5
 O6 O 0.03221333266666667 0.301833334 0.5
 O6 O 0.19887999933333333 0.198166666 0.5
 O6 O 0.134453334 0.13516666733333335 0.5
 O6 O 0.134453334 0.198166666 0.5
 O6 O 0.19887999933333333 0.13516666733333335 0.5
 O7 O 0.02645999933333333 0.04690666499999999
  0.39115333566666666
 O7 O 0.306873334 0.28642666833333336 0.6088466643333333
 O7 O 0.306873334 0.28642666833333336 0.39115333566666666
 O7 O 0.02645999933333333 0.04690666499999999
  0.6088466643333333
 O7 O 0.306873334 0.04690666499999999 0.6088466643333333
 O7 O 0.02645999933333333 0.28642666833333336
  0.39115333566666666
 O7 O 0.02645999933333333 0.28642666833333336
  0.6088466643333333
 O7 O 0.306873334 0.04690666499999999 0.39115333566666666
 O7 O 0.19312666599999997 0.21357333166666667
  0.39115333566666666
 O7 O 0.14020666733333334 0.11976000166666667
  0.6088466643333333
 O7 O 0.14020666733333334 0.11976000166666667
  0.39115333566666666
 O7 O 0.19312666599999997 0.21357333166666667
  0.6088466643333333
 O7 O 0.14020666733333334 0.21357333166666667
  0.6088466643333333
 O7 O 0.19312666599999997 0.11976000166666667
  0.39115333566666666
 O7 O 0.19312666599999997 0.11976000166666667
  0.6088466643333333
 O7 O 0.14020666733333334 0.21357333166666667
  0.39115333566666666
 O8 O 0.08333333333333333 0.08333333333333333
  0.3333333333333333
 O8 O 0.08333333333333333 0.08333333333333333
  0.6666666666666666
 O8 O 0.25 0.25 0.3333333333333333
 O8 O 0.25 0.25 0.6666666666666666
 O8 O 0.25 0.08333333333333333 0.3333333333333333
 O8 O 0.25 0.08333333333333333 0.6666666666666666
 O8 O 0.08333333333333333 0.25 0.3333333333333333
 O8 O 0.08333333333333333 0.25 0.6666666666666666
 O9 O 0.04121666633333333 0.086256663 0.3333333333333333
 O9 O 0.04121666633333333 0.086256663 0.6666666666666666
 O9 O 0.292116667 0.24707667033333333 0.3333333333333333
 O9 O 0.292116667 0.24707667033333333 0.6666666666666666
 O9 O 0.292116667 0.086256663 0.3333333333333333
 O9 O 0.292116667 0.086256663 0.6666666666666666
 O9 O 0.04121666633333333 0.24707667033333333
  0.3333333333333333
 O9 O 0.04121666633333333 0.24707667033333333
  0.6666666666666666
 O9 O 0.20788333299999998 0.2529233296666667
  0.3333333333333333
 O9 O 0.20788333299999998 0.2529233296666667
  0.6666666666666666
 O9 O 0.12545000033333334 0.08041000366666666
  0.3333333333333333
 O9 O 0.12545000033333334 0.08041000366666666
  0.6666666666666666
 O9 O 0.12545000033333334 0.2529233296666667
  0.3333333333333333
 O9 O 0.12545000033333334 0.2529233296666667
  0.6666666666666666
 O9 O 0.20788333299999998 0.08041000366666666
  0.3333333333333333
 O9 O 0.20788333299999998 0.08041000366666666
  0.6666666666666666
 O10 O 0.0 0.07543333366666667 0.3333333333333333
 O10 O 0.0 0.07543333366666667 0.6666666666666666
 O10 O 0.3333333333333333 0.07543333366666667
  0.3333333333333333
 O10 O 0.3333333333333333 0.07543333366666667
  0.6666666666666666
 O10 O 0.0 0.25789999966666666 0.3333333333333333
 O10 O 0.0 0.25789999966666666 0.6666666666666666
 O10 O 0.3333333333333333 0.25789999966666666
  0.3333333333333333
 O10 O 0.3333333333333333 0.25789999966666666
  0.6666666666666666
 O10 O 0.16666666666666666 0.24210000033333334
  0.3333333333333333
 O10 O 0.16666666666666666 0.24210000033333334
  0.6666666666666666
 O10 O 0.16666666666666666 0.09123333300000001
  0.3333333333333333
 O10 O 0.16666666666666666 0.09123333300000001
  0.6666666666666666
 O2 O 0.06349000333333334 0.119513333 0.275696665
 O2 O 0.06349000333333334 0.119513333 0.724303335
 O2 O 0.26984333 0.21382000033333334 0.275696665
 O2 O 0.26984333 0.21382000033333334 0.724303335
 O2 O 0.26984333 0.119513333 0.275696665
 O2 O 0.26984333 0.119513333 0.724303335
 O2 O 0.06349000333333334 0.21382000033333334 0.275696665
 O2 O 0.06349000333333334 0.21382000033333334 0.724303335
 O2 O 0.23015666999999998 0.2861799996666667 0.275696665
 O2 O 0.23015666999999998 0.2861799996666667 0.724303335
 O2 O 0.10317666333333332 0.047153333666666665 0.275696665
 O2 O 0.10317666333333332 0.047153333666666665 0.724303335
 O2 O 0.10317666333333332 0.2861799996666667 0.275696665
 O2 O 0.10317666333333332 0.2861799996666667 0.724303335
 O2 O 0.23015666999999998 0.047153333666666665 0.275696665
 O2 O 0.23015666999999998 0.047153333666666665 0.724303335
 O7 O 0.02645999933333333 0.04690666499999999 0.275513331
 O7 O 0.02645999933333333 0.04690666499999999 0.724486669
 O7 O 0.306873334 0.28642666833333336 0.275513331
 O7 O 0.306873334 0.28642666833333336 0.724486669
 O7 O 0.306873334 0.04690666499999999 0.275513331
 O7 O 0.306873334 0.04690666499999999 0.724486669
 O7 O 0.02645999933333333 0.28642666833333336 0.275513331
 O7 O 0.02645999933333333 0.28642666833333336 0.724486669
 O7 O 0.19312666599999997 0.21357333166666667 0.275513331
 O7 O 0.19312666599999997 0.21357333166666667 0.724486669
 O7 O 0.14020666733333334 0.11976000166666667 0.275513331
 O7 O 0.14020666733333334 0.11976000166666667 0.724486669
 O7 O 0.14020666733333334 0.21357333166666667 0.275513331
 O7 O 0.14020666733333334 0.21357333166666667 0.724486669
 O7 O 0.19312666599999997 0.11976000166666667 0.275513331
 O7 O 0.19312666599999997 0.11976000166666667 0.724486669
 Si1 Si 0.42298000066666663 0.028813332333333334
  0.4331133366666666
 Si1 Si 0.5770199993333334 0.304520001 0.5668866633333334
 Si1 Si 0.5770199993333334 0.304520001 0.4331133366666666
 Si1 Si 0.42298000066666663 0.028813332333333334
  0.5668866633333334
 Si1 Si 0.5770199993333334 0.028813332333333334
  0.5668866633333334
 Si1 Si 0.42298000066666663 0.304520001 0.4331133366666666
 Si1 Si 0.42298000066666663 0.304520001 0.5668866633333334
 Si1 Si 0.5770199993333334 0.028813332333333334
  0.4331133366666666
 Si1 Si 0.5896466673333334 0.19547999900000002
  0.4331133366666666
 Si1 Si 0.4103533326666666 0.13785333433333333
  0.5668866633333334
 Si1 Si 0.4103533326666666 0.13785333433333333
  0.4331133366666666
 Si1 Si 0.5896466673333334 0.19547999900000002
  0.5668866633333334
 Si1 Si 0.4103533326666666 0.19547999900000002
  0.5668866633333334
 Si1 Si 0.5896466673333334 0.13785333433333333
  0.4331133366666666
 Si1 Si 0.5896466673333334 0.13785333433333333
  0.5668866633333334
 Si1 Si 0.4103533326666666 0.19547999900000002
  0.4331133366666666
 Si2 Si 0.37357333299999995 0.028766667 0.43310999866666666
 Si2 Si 0.626426667 0.30456666633333335 0.5668900013333333
 Si2 Si 0.626426667 0.30456666633333335 0.43310999866666666
 Si2 Si 0.37357333299999995 0.028766667 0.5668900013333333
 Si2 Si 0.626426667 0.028766667 0.5668900013333333
 Si2 Si 0.37357333299999995 0.30456666633333335
  0.43310999866666666
 Si2 Si 0.37357333299999995 0.30456666633333335
  0.5668900013333333
 Si2 Si 0.626426667 0.028766667 0.43310999866666666
 Si2 Si 0.5402399996666667 0.19543333366666668
  0.43310999866666666
 Si2 Si 0.4597600003333333 0.13789999966666666
  0.5668900013333333
 Si2 Si 0.4597600003333333 0.13789999966666666
  0.43310999866666666
 Si2 Si 0.5402399996666667 0.19543333366666668
  0.5668900013333333
 Si2 Si 0.4597600003333333 0.19543333366666668
  0.5668900013333333
 Si2 Si 0.5402399996666667 0.13789999966666666
  0.43310999866666666
 Si2 Si 0.5402399996666667 0.13789999966666666
  0.5668900013333333
 Si2 Si 0.4597600003333333 0.19543333366666668
  0.43310999866666666
 Si3 Si 0.39648333199999997 0.10192666466666667
  0.3333333333333333
 Si3 Si 0.39648333199999997 0.10192666466666667
  0.6666666666666666
 Si3 Si 0.6035166679999999 0.23140666866666668
  0.3333333333333333
 Si3 Si 0.6035166679999999 0.23140666866666668
  0.6666666666666666
 Si3 Si 0.6035166679999999 0.10192666466666667
  0.3333333333333333
 Si3 Si 0.6035166679999999 0.10192666466666667
  0.6666666666666666
 Si3 Si 0.39648333199999997 0.23140666866666668
  0.3333333333333333
 Si3 Si 0.39648333199999997 0.23140666866666668
  0.6666666666666666
 Si3 Si 0.5631499986666666 0.26859333133333335
  0.3333333333333333
 Si3 Si 0.5631499986666666 0.26859333133333335
  0.6666666666666666
 Si3 Si 0.4368500013333333 0.064740002 0.3333333333333333
 Si3 Si 0.4368500013333333 0.064740002 0.6666666666666666
 Si3 Si 0.4368500013333333 0.26859333133333335
  0.3333333333333333
 Si3 Si 0.4368500013333333 0.26859333133333335
  0.6666666666666666
 Si3 Si 0.5631499986666666 0.064740002 0.3333333333333333
 Si3 Si 0.5631499986666666 0.064740002 0.6666666666666666
 Si4 Si 0.35713999966666665 0.06405999766666666
  0.3333333333333333
 Si4 Si 0.35713999966666665 0.06405999766666666
  0.6666666666666666
 Si4 Si 0.6428600003333333 0.26927333566666667
  0.3333333333333333
 Si4 Si 0.6428600003333333 0.26927333566666667
  0.6666666666666666
 Si4 Si 0.6428600003333333 0.06405999766666666
  0.3333333333333333
 Si4 Si 0.6428600003333333 0.06405999766666666
  0.6666666666666666
 Si4 Si 0.35713999966666665 0.26927333566666667
  0.3333333333333333
 Si4 Si 0.35713999966666665 0.26927333566666667
  0.6666666666666666
 Si4 Si 0.5238066663333333 0.23072666433333333
  0.3333333333333333
 Si4 Si 0.5238066663333333 0.23072666433333333
  0.6666666666666666
 Si4 Si 0.4761933336666666 0.102606669 0.3333333333333333
 Si4 Si 0.4761933336666666 0.102606669 0.6666666666666666
 Si4 Si 0.4761933336666666 0.23072666433333333
  0.3333333333333333
 Si4 Si 0.4761933336666666 0.23072666433333333
  0.6666666666666666
 Si4 Si 0.5238066663333333 0.102606669 0.3333333333333333
 Si4 Si 0.5238066663333333 0.102606669 0.6666666666666666
 O1 O 0.398270001 0.03671333433333333 0.429213335
 O1 O 0.601729999 0.29661999899999997 0.570786665
 O1 O 0.601729999 0.29661999899999997 0.429213335
 O1 O 0.398270001 0.03671333433333333 0.570786665
 O1 O 0.601729999 0.03671333433333333 0.570786665
 O1 O 0.398270001 0.29661999899999997 0.429213335
 O1 O 0.398270001 0.29661999899999997 0.570786665
 O1 O 0.601729999 0.03671333433333333 0.429213335
 O1 O 0.5649366676666666 0.203380001 0.429213335
 O1 O 0.43506333233333333 0.12995333233333334 0.570786665
 O1 O 0.43506333233333333 0.12995333233333334 0.429213335
 O1 O 0.5649366676666666 0.203380001 0.570786665
 O1 O 0.43506333233333333 0.203380001 0.570786665
 O1 O 0.5649366676666666 0.12995333233333334 0.429213335
 O1 O 0.5649366676666666 0.12995333233333334 0.570786665
 O1 O 0.43506333233333333 0.203380001 0.429213335
 O2 O 0.4365099966666666 0.047153333666666665
  0.3909700016666666
 O2 O 0.5634900033333333 0.2861799996666667 0.6090299983333334
 O2 O 0.5634900033333333 0.2861799996666667 0.3909700016666666
 O2 O 0.4365099966666666 0.047153333666666665
  0.6090299983333334
 O2 O 0.5634900033333333 0.047153333666666665
  0.6090299983333334
 O2 O 0.4365099966666666 0.2861799996666667 0.3909700016666666
 O2 O 0.4365099966666666 0.2861799996666667 0.6090299983333334
 O2 O 0.5634900033333333 0.047153333666666665
  0.3909700016666666
 O2 O 0.6031766633333333 0.21382000033333334
  0.3909700016666666
 O2 O 0.39682333666666664 0.119513333 0.6090299983333334
 O2 O 0.39682333666666664 0.119513333 0.3909700016666666
 O2 O 0.6031766633333333 0.21382000033333334
  0.6090299983333334
 O2 O 0.39682333666666664 0.21382000033333334
  0.6090299983333334
 O2 O 0.6031766633333333 0.119513333 0.3909700016666666
 O2 O 0.6031766633333333 0.119513333 0.6090299983333334
 O2 O 0.39682333666666664 0.21382000033333334
  0.3909700016666666
 O3 O 0.42577667033333333 0.0 0.41249000033333333
 O3 O 0.42577667033333333 0.3333333333333333
  0.41249000033333333
 O3 O 0.5742233296666667 0.0 0.5875099996666666
 O3 O 0.5742233296666667 0.3333333333333333 0.5875099996666666
 O3 O 0.5742233296666667 0.0 0.41249000033333333
 O3 O 0.5742233296666667 0.3333333333333333
  0.41249000033333333
 O3 O 0.42577667033333333 0.0 0.5875099996666666
 O3 O 0.42577667033333333 0.3333333333333333
  0.5875099996666666
 O3 O 0.592443337 0.16666666666666666 0.41249000033333333
 O3 O 0.407556663 0.16666666666666666 0.5875099996666666
 O3 O 0.407556663 0.16666666666666666 0.41249000033333333
 O3 O 0.592443337 0.16666666666666666 0.5875099996666666
 O4 O 0.430979997 0.03172666566666667 0.5
 O4 O 0.569020003 0.30160666766666666 0.5
 O4 O 0.569020003 0.03172666566666667 0.5
 O4 O 0.430979997 0.30160666766666666 0.5
 O4 O 0.5976466636666666 0.19839333233333334 0.5
 O4 O 0.4023533363333333 0.134940001 0.5
 O4 O 0.4023533363333333 0.19839333233333334 0.5
 O4 O 0.5976466636666666 0.134940001 0.5
 O5 O 0.3708633333333333 0.0 0.4120933313333333
 O5 O 0.3708633333333333 0.3333333333333333 0.4120933313333333
 O5 O 0.6291366666666667 0.0 0.5879066686666666
 O5 O 0.6291366666666667 0.3333333333333333 0.5879066686666666
 O5 O 0.6291366666666667 0.0 0.4120933313333333
 O5 O 0.6291366666666667 0.3333333333333333 0.4120933313333333
 O5 O 0.3708633333333333 0.0 0.5879066686666666
 O5 O 0.3708633333333333 0.3333333333333333 0.5879066686666666
 O5 O 0.53753 0.16666666666666666 0.4120933313333333
 O5 O 0.46246999999999994 0.16666666666666666
  0.5879066686666666
 O5 O 0.46246999999999994 0.16666666666666666
  0.4120933313333333
 O5 O 0.53753 0.16666666666666666 0.5879066686666666
 O6 O 0.36554666599999996 0.031499999333333334 0.5
 O6 O 0.634453334 0.301833334 0.5
 O6 O 0.634453334 0.031499999333333334 0.5
 O6 O 0.36554666599999996 0.301833334 0.5
 O6 O 0.5322133326666667 0.198166666 0.5
 O6 O 0.4677866673333333 0.13516666733333335 0.5
 O6 O 0.4677866673333333 0.198166666 0.5
 O6 O 0.5322133326666667 0.13516666733333335 0.5
 O7 O 0.35979333266666663 0.04690666499999999
  0.39115333566666666
 O7 O 0.6402066673333333 0.28642666833333336
  0.6088466643333333
 O7 O 0.6402066673333333 0.28642666833333336
  0.39115333566666666
 O7 O 0.35979333266666663 0.04690666499999999
  0.6088466643333333
 O7 O 0.6402066673333333 0.04690666499999999
  0.6088466643333333
 O7 O 0.35979333266666663 0.28642666833333336
  0.39115333566666666
 O7 O 0.35979333266666663 0.28642666833333336
  0.6088466643333333
 O7 O 0.6402066673333333 0.04690666499999999
  0.39115333566666666
 O7 O 0.5264599993333333 0.21357333166666667
  0.39115333566666666
 O7 O 0.4735400006666667 0.11976000166666667
  0.6088466643333333
 O7 O 0.4735400006666667 0.11976000166666667
  0.39115333566666666
 O7 O 0.5264599993333333 0.21357333166666667
  0.6088466643333333
 O7 O 0.4735400006666667 0.21357333166666667
  0.6088466643333333
 O7 O 0.5264599993333333 0.11976000166666667
  0.39115333566666666
 O7 O 0.5264599993333333 0.11976000166666667
  0.6088466643333333
 O7 O 0.4735400006666667 0.21357333166666667
  0.39115333566666666
 O8 O 0.41666666666666663 0.08333333333333333
  0.3333333333333333
 O8 O 0.41666666666666663 0.08333333333333333
  0.6666666666666666
 O8 O 0.5833333333333333 0.25 0.3333333333333333
 O8 O 0.5833333333333333 0.25 0.6666666666666666
 O8 O 0.5833333333333333 0.08333333333333333
  0.3333333333333333
 O8 O 0.5833333333333333 0.08333333333333333
  0.6666666666666666
 O8 O 0.41666666666666663 0.25 0.3333333333333333
 O8 O 0.41666666666666663 0.25 0.6666666666666666
 O9 O 0.37454999966666663 0.086256663 0.3333333333333333
 O9 O 0.37454999966666663 0.086256663 0.6666666666666666
 O9 O 0.6254500003333333 0.24707667033333333
  0.3333333333333333
 O9 O 0.6254500003333333 0.24707667033333333
  0.6666666666666666
 O9 O 0.6254500003333333 0.086256663 0.3333333333333333
 O9 O 0.6254500003333333 0.086256663 0.6666666666666666
 O9 O 0.37454999966666663 0.24707667033333333
  0.3333333333333333
 O9 O 0.37454999966666663 0.24707667033333333
  0.6666666666666666
 O9 O 0.5412166663333333 0.2529233296666667 0.3333333333333333
 O9 O 0.5412166663333333 0.2529233296666667 0.6666666666666666
 O9 O 0.4587833336666667 0.08041000366666666
  0.3333333333333333
 O9 O 0.4587833336666667 0.08041000366666666
  0.6666666666666666
 O9 O 0.4587833336666667 0.2529233296666667 0.3333333333333333
 O9 O 0.4587833336666667 0.2529233296666667 0.6666666666666666
 O9 O 0.5412166663333333 0.08041000366666666
  0.3333333333333333
 O9 O 0.5412166663333333 0.08041000366666666
  0.6666666666666666
 O10 O 0.3333333333333333 0.07543333366666667
  0.3333333333333333
 O10 O 0.3333333333333333 0.07543333366666667
  0.6666666666666666
 O10 O 0.6666666666666666 0.07543333366666667
  0.3333333333333333
 O10 O 0.6666666666666666 0.07543333366666667
  0.6666666666666666
 O10 O 0.3333333333333333 0.25789999966666666
  0.3333333333333333
 O10 O 0.3333333333333333 0.25789999966666666
  0.6666666666666666
 O10 O 0.6666666666666666 0.25789999966666666
  0.3333333333333333
 O10 O 0.6666666666666666 0.25789999966666666
  0.6666666666666666
 O10 O 0.5 0.24210000033333334 0.3333333333333333
 O10 O 0.5 0.24210000033333334 0.6666666666666666
 O10 O 0.5 0.09123333300000001 0.3333333333333333
 O10 O 0.5 0.09123333300000001 0.6666666666666666
 O2 O 0.39682333666666664 0.119513333 0.275696665
 O2 O 0.39682333666666664 0.119513333 0.724303335
 O2 O 0.6031766633333333 0.21382000033333334 0.275696665
 O2 O 0.6031766633333333 0.21382000033333334 0.724303335
 O2 O 0.6031766633333333 0.119513333 0.275696665
 O2 O 0.6031766633333333 0.119513333 0.724303335
 O2 O 0.39682333666666664 0.21382000033333334 0.275696665
 O2 O 0.39682333666666664 0.21382000033333334 0.724303335
 O2 O 0.5634900033333333 0.2861799996666667 0.275696665
 O2 O 0.5634900033333333 0.2861799996666667 0.724303335
 O2 O 0.4365099966666666 0.047153333666666665 0.275696665
 O2 O 0.4365099966666666 0.047153333666666665 0.724303335
 O2 O 0.4365099966666666 0.2861799996666667 0.275696665
 O2 O 0.4365099966666666 0.2861799996666667 0.724303335
 O2 O 0.5634900033333333 0.047153333666666665 0.275696665
 O2 O 0.5634900033333333 0.047153333666666665 0.724303335
 O7 O 0.35979333266666663 0.04690666499999999 0.275513331
 O7 O 0.35979333266666663 0.04690666499999999 0.724486669
 O7 O 0.6402066673333333 0.28642666833333336 0.275513331
 O7 O 0.6402066673333333 0.28642666833333336 0.724486669
 O7 O 0.6402066673333333 0.04690666499999999 0.275513331
 O7 O 0.6402066673333333 0.04690666499999999 0.724486669
 O7 O 0.35979333266666663 0.28642666833333336 0.275513331
 O7 O 0.35979333266666663 0.28642666833333336 0.724486669
 O7 O 0.5264599993333333 0.21357333166666667 0.275513331
 O7 O 0.5264599993333333 0.21357333166666667 0.724486669
 O7 O 0.4735400006666667 0.11976000166666667 0.275513331
 O7 O 0.4735400006666667 0.11976000166666667 0.724486669
 O7 O 0.4735400006666667 0.21357333166666667 0.275513331
 O7 O 0.4735400006666667 0.21357333166666667 0.724486669
 O7 O 0.5264599993333333 0.11976000166666667 0.275513331
 O7 O 0.5264599993333333 0.11976000166666667 0.724486669
 Si1 Si 0.7563133339999999 0.028813332333333334
  0.4331133366666666
 Si1 Si 0.9103533326666666 0.304520001 0.5668866633333334
 Si1 Si 0.9103533326666666 0.304520001 0.4331133366666666
 Si1 Si 0.7563133339999999 0.028813332333333334
  0.5668866633333334
 Si1 Si 0.9103533326666666 0.028813332333333334
  0.5668866633333334
 Si1 Si 0.7563133339999999 0.304520001 0.4331133366666666
 Si1 Si 0.7563133339999999 0.304520001 0.5668866633333334
 Si1 Si 0.9103533326666666 0.028813332333333334
  0.4331133366666666
 Si1 Si 0.9229800006666666 0.19547999900000002
  0.4331133366666666
 Si1 Si 0.7436866659999999 0.13785333433333333
  0.5668866633333334
 Si1 Si 0.7436866659999999 0.13785333433333333
  0.4331133366666666
 Si1 Si 0.9229800006666666 0.19547999900000002
  0.5668866633333334
 Si1 Si 0.7436866659999999 0.19547999900000002
  0.5668866633333334
 Si1 Si 0.9229800006666666 0.13785333433333333
  0.4331133366666666
 Si1 Si 0.9229800006666666 0.13785333433333333
  0.5668866633333334
 Si1 Si 0.7436866659999999 0.19547999900000002
  0.4331133366666666
 Si2 Si 0.7069066663333332 0.028766667 0.43310999866666666
 Si2 Si 0.9597600003333333 0.30456666633333335
  0.5668900013333333
 Si2 Si 0.9597600003333333 0.30456666633333335
  0.43310999866666666
 Si2 Si 0.7069066663333332 0.028766667 0.5668900013333333
 Si2 Si 0.9597600003333333 0.028766667 0.5668900013333333
 Si2 Si 0.7069066663333332 0.30456666633333335
  0.43310999866666666
 Si2 Si 0.7069066663333332 0.30456666633333335
  0.5668900013333333
 Si2 Si 0.9597600003333333 0.028766667 0.43310999866666666
 Si2 Si 0.873573333 0.19543333366666668 0.43310999866666666
 Si2 Si 0.7930933336666666 0.13789999966666666
  0.5668900013333333
 Si2 Si 0.7930933336666666 0.13789999966666666
  0.43310999866666666
 Si2 Si 0.873573333 0.19543333366666668 0.5668900013333333
 Si2 Si 0.7930933336666666 0.19543333366666668
  0.5668900013333333
 Si2 Si 0.873573333 0.13789999966666666 0.43310999866666666
 Si2 Si 0.873573333 0.13789999966666666 0.5668900013333333
 Si2 Si 0.7930933336666666 0.19543333366666668
  0.43310999866666666
 Si3 Si 0.7298166653333333 0.10192666466666667
  0.3333333333333333
 Si3 Si 0.7298166653333333 0.10192666466666667
  0.6666666666666666
 Si3 Si 0.9368500013333332 0.23140666866666668
  0.3333333333333333
 Si3 Si 0.9368500013333332 0.23140666866666668
  0.6666666666666666
 Si3 Si 0.9368500013333332 0.10192666466666667
  0.3333333333333333
 Si3 Si 0.9368500013333332 0.10192666466666667
  0.6666666666666666
 Si3 Si 0.7298166653333333 0.23140666866666668
  0.3333333333333333
 Si3 Si 0.7298166653333333 0.23140666866666668
  0.6666666666666666
 Si3 Si 0.8964833319999999 0.26859333133333335
  0.3333333333333333
 Si3 Si 0.8964833319999999 0.26859333133333335
  0.6666666666666666
 Si3 Si 0.7701833346666667 0.064740002 0.3333333333333333
 Si3 Si 0.7701833346666667 0.064740002 0.6666666666666666
 Si3 Si 0.7701833346666667 0.26859333133333335
  0.3333333333333333
 Si3 Si 0.7701833346666667 0.26859333133333335
  0.6666666666666666
 Si3 Si 0.8964833319999999 0.064740002 0.3333333333333333
 Si3 Si 0.8964833319999999 0.064740002 0.6666666666666666
 Si4 Si 0.6904733329999999 0.06405999766666666
  0.3333333333333333
 Si4 Si 0.6904733329999999 0.06405999766666666
  0.6666666666666666
 Si4 Si 0.9761933336666666 0.26927333566666667
  0.3333333333333333
 Si4 Si 0.9761933336666666 0.26927333566666667
  0.6666666666666666
 Si4 Si 0.9761933336666666 0.06405999766666666
  0.3333333333333333
 Si4 Si 0.9761933336666666 0.06405999766666666
  0.6666666666666666
 Si4 Si 0.6904733329999999 0.26927333566666667
  0.3333333333333333
 Si4 Si 0.6904733329999999 0.26927333566666667
  0.6666666666666666
 Si4 Si 0.8571399996666667 0.23072666433333333
  0.3333333333333333
 Si4 Si 0.8571399996666667 0.23072666433333333
  0.6666666666666666
 Si4 Si 0.8095266669999999 0.102606669 0.3333333333333333
 Si4 Si 0.8095266669999999 0.102606669 0.6666666666666666
 Si4 Si 0.8095266669999999 0.23072666433333333
  0.3333333333333333
 Si4 Si 0.8095266669999999 0.23072666433333333
  0.6666666666666666
 Si4 Si 0.8571399996666667 0.102606669 0.3333333333333333
 Si4 Si 0.8571399996666667 0.102606669 0.6666666666666666
 O1 O 0.7316033343333332 0.03671333433333333 0.429213335
 O1 O 0.9350633323333333 0.29661999899999997 0.570786665
 O1 O 0.9350633323333333 0.29661999899999997 0.429213335
 O1 O 0.7316033343333332 0.03671333433333333 0.570786665
 O1 O 0.9350633323333333 0.03671333433333333 0.570786665
 O1 O 0.7316033343333332 0.29661999899999997 0.429213335
 O1 O 0.7316033343333332 0.29661999899999997 0.570786665
 O1 O 0.9350633323333333 0.03671333433333333 0.429213335
 O1 O 0.898270001 0.203380001 0.429213335
 O1 O 0.7683966656666666 0.12995333233333334 0.570786665
 O1 O 0.7683966656666666 0.12995333233333334 0.429213335
 O1 O 0.898270001 0.203380001 0.570786665
 O1 O 0.7683966656666666 0.203380001 0.570786665
 O1 O 0.898270001 0.12995333233333334 0.429213335
 O1 O 0.898270001 0.12995333233333334 0.570786665
 O1 O 0.7683966656666666 0.203380001 0.429213335
 O2 O 0.7698433299999999 0.047153333666666665
  0.3909700016666666
 O2 O 0.8968233366666667 0.2861799996666667 0.6090299983333334
 O2 O 0.8968233366666667 0.2861799996666667 0.3909700016666666
 O2 O 0.7698433299999999 0.047153333666666665
  0.6090299983333334
 O2 O 0.8968233366666667 0.047153333666666665
  0.6090299983333334
 O2 O 0.7698433299999999 0.2861799996666667 0.3909700016666666
 O2 O 0.7698433299999999 0.2861799996666667 0.6090299983333334
 O2 O 0.8968233366666667 0.047153333666666665
  0.3909700016666666
 O2 O 0.9365099966666666 0.21382000033333334
  0.3909700016666666
 O2 O 0.73015667 0.119513333 0.6090299983333334
 O2 O 0.73015667 0.119513333 0.3909700016666666
 O2 O 0.9365099966666666 0.21382000033333334
  0.6090299983333334
 O2 O 0.73015667 0.21382000033333334 0.6090299983333334
 O2 O 0.9365099966666666 0.119513333 0.3909700016666666
 O2 O 0.9365099966666666 0.119513333 0.6090299983333334
 O2 O 0.73015667 0.21382000033333334 0.3909700016666666
 O3 O 0.7591100036666667 0.0 0.41249000033333333
 O3 O 0.7591100036666667 0.3333333333333333
  0.41249000033333333
 O3 O 0.907556663 0.0 0.5875099996666666
 O3 O 0.907556663 0.3333333333333333 0.5875099996666666
 O3 O 0.907556663 0.0 0.41249000033333333
 O3 O 0.907556663 0.3333333333333333 0.41249000033333333
 O3 O 0.7591100036666667 0.0 0.5875099996666666
 O3 O 0.7591100036666667 0.3333333333333333 0.5875099996666666
 O3 O 0.9257766703333332 0.16666666666666666
  0.41249000033333333
 O3 O 0.7408899963333333 0.16666666666666666
  0.5875099996666666
 O3 O 0.7408899963333333 0.16666666666666666
  0.41249000033333333
 O3 O 0.9257766703333332 0.16666666666666666
  0.5875099996666666
 O4 O 0.7643133303333334 0.03172666566666667 0.5
 O4 O 0.9023533363333334 0.30160666766666666 0.5
 O4 O 0.9023533363333334 0.03172666566666667 0.5
 O4 O 0.7643133303333334 0.30160666766666666 0.5
 O4 O 0.9309799969999999 0.19839333233333334 0.5
 O4 O 0.7356866696666666 0.134940001 0.5
 O4 O 0.7356866696666666 0.19839333233333334 0.5
 O4 O 0.9309799969999999 0.134940001 0.5
 O5 O 0.7041966666666666 0.0 0.4120933313333333
 O5 O 0.7041966666666666 0.3333333333333333 0.4120933313333333
 O5 O 0.9624699999999999 0.0 0.5879066686666666
 O5 O 0.9624699999999999 0.3333333333333333 0.5879066686666666
 O5 O 0.9624699999999999 0.0 0.4120933313333333
 O5 O 0.9624699999999999 0.3333333333333333 0.4120933313333333
 O5 O 0.7041966666666666 0.0 0.5879066686666666
 O5 O 0.7041966666666666 0.3333333333333333 0.5879066686666666
 O5 O 0.8708633333333333 0.16666666666666666
  0.4120933313333333
 O5 O 0.7958033333333332 0.16666666666666666
  0.5879066686666666
 O5 O 0.7958033333333332 0.16666666666666666
  0.4120933313333333
 O5 O 0.8708633333333333 0.16666666666666666
  0.5879066686666666
 O6 O 0.6988799993333332 0.031499999333333334 0.5
 O6 O 0.9677866673333333 0.301833334 0.5
 O6 O 0.9677866673333333 0.031499999333333334 0.5
 O6 O 0.6988799993333332 0.301833334 0.5
 O6 O 0.865546666 0.198166666 0.5
 O6 O 0.8011200006666666 0.13516666733333335 0.5
 O6 O 0.8011200006666666 0.198166666 0.5
 O6 O 0.865546666 0.13516666733333335 0.5
 O7 O 0.693126666 0.04690666499999999 0.39115333566666666
 O7 O 0.9735400006666666 0.28642666833333336
  0.6088466643333333
 O7 O 0.9735400006666666 0.28642666833333336
  0.39115333566666666
 O7 O 0.693126666 0.04690666499999999 0.6088466643333333
 O7 O 0.9735400006666666 0.04690666499999999
  0.6088466643333333
 O7 O 0.693126666 0.28642666833333336 0.39115333566666666
 O7 O 0.693126666 0.28642666833333336 0.6088466643333333
 O7 O 0.9735400006666666 0.04690666499999999
  0.39115333566666666
 O7 O 0.8597933326666667 0.21357333166666667
  0.39115333566666666
 O7 O 0.806873334 0.11976000166666667 0.6088466643333333
 O7 O 0.806873334 0.11976000166666667 0.39115333566666666
 O7 O 0.8597933326666667 0.21357333166666667
  0.6088466643333333
 O7 O 0.806873334 0.21357333166666667 0.6088466643333333
 O7 O 0.8597933326666667 0.11976000166666667
  0.39115333566666666
 O7 O 0.8597933326666667 0.11976000166666667
  0.6088466643333333
 O7 O 0.806873334 0.21357333166666667 0.39115333566666666
 O8 O 0.75 0.08333333333333333 0.3333333333333333
 O8 O 0.75 0.08333333333333333 0.6666666666666666
 O8 O 0.9166666666666665 0.25 0.3333333333333333
 O8 O 0.9166666666666665 0.25 0.6666666666666666
 O8 O 0.9166666666666665 0.08333333333333333
  0.3333333333333333
 O8 O 0.9166666666666665 0.08333333333333333
  0.6666666666666666
 O8 O 0.75 0.25 0.3333333333333333
 O8 O 0.75 0.25 0.6666666666666666
 O9 O 0.707883333 0.086256663 0.3333333333333333
 O9 O 0.707883333 0.086256663 0.6666666666666666
 O9 O 0.9587833336666667 0.24707667033333333
  0.3333333333333333
 O9 O 0.9587833336666667 0.24707667033333333
  0.6666666666666666
 O9 O 0.9587833336666667 0.086256663 0.3333333333333333
 O9 O 0.9587833336666667 0.086256663 0.6666666666666666
 O9 O 0.707883333 0.24707667033333333 0.3333333333333333
 O9 O 0.707883333 0.24707667033333333 0.6666666666666666
 O9 O 0.8745499996666666 0.2529233296666667 0.3333333333333333
 O9 O 0.8745499996666666 0.2529233296666667 0.6666666666666666
 O9 O 0.7921166669999999 0.08041000366666666
  0.3333333333333333
 O9 O 0.7921166669999999 0.08041000366666666
  0.6666666666666666
 O9 O 0.7921166669999999 0.2529233296666667 0.3333333333333333
 O9 O 0.7921166669999999 0.2529233296666667 0.6666666666666666
 O9 O 0.8745499996666666 0.08041000366666666
  0.3333333333333333
 O9 O 0.8745499996666666 0.08041000366666666
  0.6666666666666666
 O10 O 0.6666666666666666 0.07543333366666667
  0.3333333333333333
 O10 O 0.6666666666666666 0.07543333366666667
  0.6666666666666666
 O10 O 1.0 0.07543333366666667 0.3333333333333333
 O10 O 1.0 0.07543333366666667 0.6666666666666666
 O10 O 0.6666666666666666 0.25789999966666666
  0.3333333333333333
 O10 O 0.6666666666666666 0.25789999966666666
  0.6666666666666666
 O10 O 1.0 0.25789999966666666 0.3333333333333333
 O10 O 1.0 0.25789999966666666 0.6666666666666666
 O10 O 0.8333333333333333 0.24210000033333334
  0.3333333333333333
 O10 O 0.8333333333333333 0.24210000033333334
  0.6666666666666666
 O10 O 0.8333333333333333 0.09123333300000001
  0.3333333333333333
 O10 O 0.8333333333333333 0.09123333300000001
  0.6666666666666666
 O2 O 0.73015667 0.119513333 0.275696665
 O2 O 0.73015667 0.119513333 0.724303335
 O2 O 0.9365099966666666 0.21382000033333334 0.275696665
 O2 O 0.9365099966666666 0.21382000033333334 0.724303335
 O2 O 0.9365099966666666 0.119513333 0.275696665
 O2 O 0.9365099966666666 0.119513333 0.724303335
 O2 O 0.73015667 0.21382000033333334 0.275696665
 O2 O 0.73015667 0.21382000033333334 0.724303335
 O2 O 0.8968233366666667 0.2861799996666667 0.275696665
 O2 O 0.8968233366666667 0.2861799996666667 0.724303335
 O2 O 0.7698433299999999 0.047153333666666665 0.275696665
 O2 O 0.7698433299999999 0.047153333666666665 0.724303335
 O2 O 0.7698433299999999 0.2861799996666667 0.275696665
 O2 O 0.7698433299999999 0.2861799996666667 0.724303335
 O2 O 0.8968233366666667 0.047153333666666665 0.275696665
 O2 O 0.8968233366666667 0.047153333666666665 0.724303335
 O7 O 0.693126666 0.04690666499999999 0.275513331
 O7 O 0.693126666 0.04690666499999999 0.724486669
 O7 O 0.9735400006666666 0.28642666833333336 0.275513331
 O7 O 0.9735400006666666 0.28642666833333336 0.724486669
 O7 O 0.9735400006666666 0.04690666499999999 0.275513331
 O7 O 0.9735400006666666 0.04690666499999999 0.724486669
 O7 O 0.693126666 0.28642666833333336 0.275513331
 O7 O 0.693126666 0.28642666833333336 0.724486669
 O7 O 0.8597933326666667 0.21357333166666667 0.275513331
 O7 O 0.8597933326666667 0.21357333166666667 0.724486669
 O7 O 0.806873334 0.11976000166666667 0.275513331
 O7 O 0.806873334 0.11976000166666667 0.724486669
 O7 O 0.806873334 0.21357333166666667 0.275513331
 O7 O 0.806873334 0.21357333166666667 0.724486669
 O7 O 0.8597933326666667 0.11976000166666667 0.275513331
 O7 O 0.8597933326666667 0.11976000166666667 0.724486669
 Si1 Si 0.08964666733333333 0.36214666566666665
  0.4331133366666666
 Si1 Si 0.243686666 0.6378533343333332 0.5668866633333334
 Si1 Si 0.243686666 0.6378533343333332 0.4331133366666666
 Si1 Si 0.08964666733333333 0.36214666566666665
  0.5668866633333334
 Si1 Si 0.243686666 0.36214666566666665 0.5668866633333334
 Si1 Si 0.08964666733333333 0.6378533343333332
  0.4331133366666666
 Si1 Si 0.08964666733333333 0.6378533343333332
  0.5668866633333334
 Si1 Si 0.243686666 0.36214666566666665 0.4331133366666666
 Si1 Si 0.256313334 0.5288133323333333 0.4331133366666666
 Si1 Si 0.07701999933333332 0.4711866676666666
  0.5668866633333334
 Si1 Si 0.07701999933333332 0.4711866676666666
  0.4331133366666666
 Si1 Si 0.256313334 0.5288133323333333 0.5668866633333334
 Si1 Si 0.07701999933333332 0.5288133323333333
  0.5668866633333334
 Si1 Si 0.256313334 0.4711866676666666 0.4331133366666666
 Si1 Si 0.256313334 0.4711866676666666 0.5668866633333334
 Si1 Si 0.07701999933333332 0.5288133323333333
  0.4331133366666666
 Si2 Si 0.040239999666666665 0.36210000033333334
  0.43310999866666666
 Si2 Si 0.2930933336666667 0.6378999996666667
  0.5668900013333333
 Si2 Si 0.2930933336666667 0.6378999996666667
  0.43310999866666666
 Si2 Si 0.040239999666666665 0.36210000033333334
  0.5668900013333333
 Si2 Si 0.2930933336666667 0.36210000033333334
  0.5668900013333333
 Si2 Si 0.040239999666666665 0.6378999996666667
  0.43310999866666666
 Si2 Si 0.040239999666666665 0.6378999996666667
  0.5668900013333333
 Si2 Si 0.2930933336666667 0.36210000033333334
  0.43310999866666666
 Si2 Si 0.20690666633333332 0.528766667 0.43310999866666666
 Si2 Si 0.126426667 0.471233333 0.5668900013333333
 Si2 Si 0.126426667 0.471233333 0.43310999866666666
 Si2 Si 0.20690666633333332 0.528766667 0.5668900013333333
 Si2 Si 0.126426667 0.528766667 0.5668900013333333
 Si2 Si 0.20690666633333332 0.471233333 0.43310999866666666
 Si2 Si 0.20690666633333332 0.471233333 0.5668900013333333
 Si2 Si 0.126426667 0.528766667 0.43310999866666666
 Si3 Si 0.06314999866666667 0.435259998 0.3333333333333333
 Si3 Si 0.06314999866666667 0.435259998 0.6666666666666666
 Si3 Si 0.27018333466666666 0.564740002 0.3333333333333333
 Si3 Si 0.27018333466666666 0.564740002 0.6666666666666666
 Si3 Si 0.27018333466666666 0.435259998 0.3333333333333333
 Si3 Si 0.27018333466666666 0.435259998 0.6666666666666666
 Si3 Si 0.06314999866666667 0.564740002 0.3333333333333333
 Si3 Si 0.06314999866666667 0.564740002 0.6666666666666666
 Si3 Si 0.22981666533333334 0.6019266646666667
  0.3333333333333333
 Si3 Si 0.22981666533333334 0.6019266646666667
  0.6666666666666666
 Si3 Si 0.10351666799999999 0.39807333533333333
  0.3333333333333333
 Si3 Si 0.10351666799999999 0.39807333533333333
  0.6666666666666666
 Si3 Si 0.10351666799999999 0.6019266646666667
  0.3333333333333333
 Si3 Si 0.10351666799999999 0.6019266646666667
  0.6666666666666666
 Si3 Si 0.22981666533333334 0.39807333533333333
  0.3333333333333333
 Si3 Si 0.22981666533333334 0.39807333533333333
  0.6666666666666666
 Si4 Si 0.023806666333333334 0.39739333099999996
  0.3333333333333333
 Si4 Si 0.023806666333333334 0.39739333099999996
  0.6666666666666666
 Si4 Si 0.30952666700000003 0.602606669 0.3333333333333333
 Si4 Si 0.30952666700000003 0.602606669 0.6666666666666666
 Si4 Si 0.30952666700000003 0.39739333099999996
  0.3333333333333333
 Si4 Si 0.30952666700000003 0.39739333099999996
  0.6666666666666666
 Si4 Si 0.023806666333333334 0.602606669 0.3333333333333333
 Si4 Si 0.023806666333333334 0.602606669 0.6666666666666666
 Si4 Si 0.190473333 0.5640599976666667 0.3333333333333333
 Si4 Si 0.190473333 0.5640599976666667 0.6666666666666666
 Si4 Si 0.14286000033333332 0.4359400023333333
  0.3333333333333333
 Si4 Si 0.14286000033333332 0.4359400023333333
  0.6666666666666666
 Si4 Si 0.14286000033333332 0.5640599976666667
  0.3333333333333333
 Si4 Si 0.14286000033333332 0.5640599976666667
  0.6666666666666666
 Si4 Si 0.190473333 0.4359400023333333 0.3333333333333333
 Si4 Si 0.190473333 0.4359400023333333 0.6666666666666666
 O1 O 0.06493666766666667 0.37004666766666666 0.429213335
 O1 O 0.2683966656666667 0.6299533323333333 0.570786665
 O1 O 0.2683966656666667 0.6299533323333333 0.429213335
 O1 O 0.06493666766666667 0.37004666766666666 0.570786665
 O1 O 0.2683966656666667 0.37004666766666666 0.570786665
 O1 O 0.06493666766666667 0.6299533323333333 0.429213335
 O1 O 0.06493666766666667 0.6299533323333333 0.570786665
 O1 O 0.2683966656666667 0.37004666766666666 0.429213335
 O1 O 0.23160333433333333 0.5367133343333333 0.429213335
 O1 O 0.101729999 0.46328666566666665 0.570786665
 O1 O 0.101729999 0.46328666566666665 0.429213335
 O1 O 0.23160333433333333 0.5367133343333333 0.570786665
 O1 O 0.101729999 0.5367133343333333 0.570786665
 O1 O 0.23160333433333333 0.46328666566666665 0.429213335
 O1 O 0.23160333433333333 0.46328666566666665 0.570786665
 O1 O 0.101729999 0.5367133343333333 0.429213335
 O2 O 0.10317666333333332 0.380486667 0.3909700016666666
 O2 O 0.23015666999999998 0.619513333 0.6090299983333334
 O2 O 0.23015666999999998 0.619513333 0.3909700016666666
 O2 O 0.10317666333333332 0.380486667 0.6090299983333334
 O2 O 0.23015666999999998 0.380486667 0.6090299983333334
 O2 O 0.10317666333333332 0.619513333 0.3909700016666666
 O2 O 0.10317666333333332 0.619513333 0.6090299983333334
 O2 O 0.23015666999999998 0.380486667 0.3909700016666666
 O2 O 0.26984333 0.5471533336666666 0.3909700016666666
 O2 O 0.06349000333333334 0.4528466663333333
  0.6090299983333334
 O2 O 0.06349000333333334 0.4528466663333333
  0.3909700016666666
 O2 O 0.26984333 0.5471533336666666 0.6090299983333334
 O2 O 0.06349000333333334 0.5471533336666666
  0.6090299983333334
 O2 O 0.26984333 0.4528466663333333 0.3909700016666666
 O2 O 0.26984333 0.4528466663333333 0.6090299983333334
 O2 O 0.06349000333333334 0.5471533336666666
  0.3909700016666666
 O3 O 0.092443337 0.3333333333333333 0.41249000033333333
 O3 O 0.092443337 0.6666666666666666 0.41249000033333333
 O3 O 0.24088999633333333 0.3333333333333333
  0.5875099996666666
 O3 O 0.24088999633333333 0.6666666666666666
  0.5875099996666666
 O3 O 0.24088999633333333 0.3333333333333333
  0.41249000033333333
 O3 O 0.24088999633333333 0.6666666666666666
  0.41249000033333333
 O3 O 0.092443337 0.3333333333333333 0.5875099996666666
 O3 O 0.092443337 0.6666666666666666 0.5875099996666666
 O3 O 0.25911000366666664 0.5 0.41249000033333333
 O3 O 0.07422332966666667 0.5 0.5875099996666666
 O3 O 0.07422332966666667 0.5 0.41249000033333333
 O3 O 0.25911000366666664 0.5 0.5875099996666666
 O4 O 0.09764666366666667 0.36505999899999997 0.5
 O4 O 0.23568666966666665 0.6349400009999999 0.5
 O4 O 0.23568666966666665 0.36505999899999997 0.5
 O4 O 0.09764666366666667 0.6349400009999999 0.5
 O4 O 0.2643133303333333 0.5317266656666666 0.5
 O4 O 0.069020003 0.4682733343333333 0.5
 O4 O 0.069020003 0.5317266656666666 0.5
 O4 O 0.2643133303333333 0.4682733343333333 0.5
 O5 O 0.03753 0.3333333333333333 0.4120933313333333
 O5 O 0.03753 0.6666666666666666 0.4120933313333333
 O5 O 0.29580333333333336 0.3333333333333333
  0.5879066686666666
 O5 O 0.29580333333333336 0.6666666666666666
  0.5879066686666666
 O5 O 0.29580333333333336 0.3333333333333333
  0.4120933313333333
 O5 O 0.29580333333333336 0.6666666666666666
  0.4120933313333333
 O5 O 0.03753 0.3333333333333333 0.5879066686666666
 O5 O 0.03753 0.6666666666666666 0.5879066686666666
 O5 O 0.20419666666666667 0.5 0.4120933313333333
 O5 O 0.12913666666666665 0.5 0.5879066686666666
 O5 O 0.12913666666666665 0.5 0.4120933313333333
 O5 O 0.20419666666666667 0.5 0.5879066686666666
 O6 O 0.03221333266666667 0.3648333326666666 0.5
 O6 O 0.30112000066666667 0.6351666673333334 0.5
 O6 O 0.30112000066666667 0.3648333326666666 0.5
 O6 O 0.03221333266666667 0.6351666673333334 0.5
 O6 O 0.19887999933333333 0.5314999993333334 0.5
 O6 O 0.134453334 0.46850000066666664 0.5
 O6 O 0.134453334 0.5314999993333334 0.5
 O6 O 0.19887999933333333 0.46850000066666664 0.5
 O7 O 0.02645999933333333 0.38023999833333333
  0.39115333566666666
 O7 O 0.306873334 0.6197600016666667 0.6088466643333333
 O7 O 0.306873334 0.6197600016666667 0.39115333566666666
 O7 O 0.02645999933333333 0.38023999833333333
  0.6088466643333333
 O7 O 0.306873334 0.38023999833333333 0.6088466643333333
 O7 O 0.02645999933333333 0.6197600016666667
  0.39115333566666666
 O7 O 0.02645999933333333 0.6197600016666667
  0.6088466643333333
 O7 O 0.306873334 0.38023999833333333 0.39115333566666666
 O7 O 0.19312666599999997 0.546906665 0.39115333566666666
 O7 O 0.14020666733333334 0.453093335 0.6088466643333333
 O7 O 0.14020666733333334 0.453093335 0.39115333566666666
 O7 O 0.19312666599999997 0.546906665 0.6088466643333333
 O7 O 0.14020666733333334 0.546906665 0.6088466643333333
 O7 O 0.19312666599999997 0.453093335 0.39115333566666666
 O7 O 0.19312666599999997 0.453093335 0.6088466643333333
 O7 O 0.14020666733333334 0.546906665 0.39115333566666666
 O8 O 0.08333333333333333 0.41666666666666663
  0.3333333333333333
 O8 O 0.08333333333333333 0.41666666666666663
  0.6666666666666666
 O8 O 0.25 0.5833333333333333 0.3333333333333333
 O8 O 0.25 0.5833333333333333 0.6666666666666666
 O8 O 0.25 0.41666666666666663 0.3333333333333333
 O8 O 0.25 0.41666666666666663 0.6666666666666666
 O8 O 0.08333333333333333 0.5833333333333333
  0.3333333333333333
 O8 O 0.08333333333333333 0.5833333333333333
  0.6666666666666666
 O9 O 0.04121666633333333 0.4195899963333333
  0.3333333333333333
 O9 O 0.04121666633333333 0.4195899963333333
  0.6666666666666666
 O9 O 0.292116667 0.5804100036666666 0.3333333333333333
 O9 O 0.292116667 0.5804100036666666 0.6666666666666666
 O9 O 0.292116667 0.4195899963333333 0.3333333333333333
 O9 O 0.292116667 0.4195899963333333 0.6666666666666666
 O9 O 0.04121666633333333 0.5804100036666666
  0.3333333333333333
 O9 O 0.04121666633333333 0.5804100036666666
  0.6666666666666666
 O9 O 0.20788333299999998 0.586256663 0.3333333333333333
 O9 O 0.20788333299999998 0.586256663 0.6666666666666666
 O9 O 0.12545000033333334 0.413743337 0.3333333333333333
 O9 O 0.12545000033333334 0.413743337 0.6666666666666666
 O9 O 0.12545000033333334 0.586256663 0.3333333333333333
 O9 O 0.12545000033333334 0.586256663 0.6666666666666666
 O9 O 0.20788333299999998 0.413743337 0.3333333333333333
 O9 O 0.20788333299999998 0.413743337 0.6666666666666666
 O10 O 0.0 0.408766667 0.3333333333333333
 O10 O 0.0 0.408766667 0.6666666666666666
 O10 O 0.3333333333333333 0.408766667 0.3333333333333333
 O10 O 0.3333333333333333 0.408766667 0.6666666666666666
 O10 O 0.0 0.5912333329999999 0.3333333333333333
 O10 O 0.0 0.5912333329999999 0.6666666666666666
 O10 O 0.3333333333333333 0.5912333329999999
  0.3333333333333333
 O10 O 0.3333333333333333 0.5912333329999999
  0.6666666666666666
 O10 O 0.16666666666666666 0.5754333336666666
  0.3333333333333333
 O10 O 0.16666666666666666 0.5754333336666666
  0.6666666666666666
 O10 O 0.16666666666666666 0.42456666633333334
  0.3333333333333333
 O10 O 0.16666666666666666 0.42456666633333334
  0.6666666666666666
 O2 O 0.06349000333333334 0.4528466663333333 0.275696665
 O2 O 0.06349000333333334 0.4528466663333333 0.724303335
 O2 O 0.26984333 0.5471533336666666 0.275696665
 O2 O 0.26984333 0.5471533336666666 0.724303335
 O2 O 0.26984333 0.4528466663333333 0.275696665
 O2 O 0.26984333 0.4528466663333333 0.724303335
 O2 O 0.06349000333333334 0.5471533336666666 0.275696665
 O2 O 0.06349000333333334 0.5471533336666666 0.724303335
 O2 O 0.23015666999999998 0.619513333 0.275696665
 O2 O 0.23015666999999998 0.619513333 0.724303335
 O2 O 0.10317666333333332 0.380486667 0.275696665
 O2 O 0.10317666333333332 0.380486667 0.724303335
 O2 O 0.10317666333333332 0.619513333 0.275696665
 O2 O 0.10317666333333332 0.619513333 0.724303335
 O2 O 0.23015666999999998 0.380486667 0.275696665
 O2 O 0.23015666999999998 0.380486667 0.724303335
 O7 O 0.02645999933333333 0.38023999833333333 0.275513331
 O7 O 0.02645999933333333 0.38023999833333333 0.724486669
 O7 O 0.306873334 0.6197600016666667 0.275513331
 O7 O 0.306873334 0.6197600016666667 0.724486669
 O7 O 0.306873334 0.38023999833333333 0.275513331
 O7 O 0.306873334 0.38023999833333333 0.724486669
 O7 O 0.02645999933333333 0.6197600016666667 0.275513331
 O7 O 0.02645999933333333 0.6197600016666667 0.724486669
 O7 O 0.19312666599999997 0.546906665 0.275513331
 O7 O 0.19312666599999997 0.546906665 0.724486669
 O7 O 0.14020666733333334 0.453093335 0.275513331
 O7 O 0.14020666733333334 0.453093335 0.724486669
 O7 O 0.14020666733333334 0.546906665 0.275513331
 O7 O 0.14020666733333334 0.546906665 0.724486669
 O7 O 0.19312666599999997 0.453093335 0.275513331
 O7 O 0.19312666599999997 0.453093335 0.724486669
 Si1 Si 0.42298000066666663 0.36214666566666665
  0.4331133366666666
 Si1 Si 0.5770199993333334 0.6378533343333332
  0.5668866633333334
 Si1 Si 0.5770199993333334 0.6378533343333332
  0.4331133366666666
 Si1 Si 0.42298000066666663 0.36214666566666665
  0.5668866633333334
 Si1 Si 0.5770199993333334 0.36214666566666665
  0.5668866633333334
 Si1 Si 0.42298000066666663 0.6378533343333332
  0.4331133366666666
 Si1 Si 0.42298000066666663 0.6378533343333332
  0.5668866633333334
 Si1 Si 0.5770199993333334 0.36214666566666665
  0.4331133366666666
 Si1 Si 0.5896466673333334 0.5288133323333333
  0.4331133366666666
 Si1 Si 0.4103533326666666 0.4711866676666666
  0.5668866633333334
 Si1 Si 0.4103533326666666 0.4711866676666666
  0.4331133366666666
 Si1 Si 0.5896466673333334 0.5288133323333333
  0.5668866633333334
 Si1 Si 0.4103533326666666 0.5288133323333333
  0.5668866633333334
 Si1 Si 0.5896466673333334 0.4711866676666666
  0.4331133366666666
 Si1 Si 0.5896466673333334 0.4711866676666666
  0.5668866633333334
 Si1 Si 0.4103533326666666 0.5288133323333333
  0.4331133366666666
 Si2 Si 0.37357333299999995 0.36210000033333334
  0.43310999866666666
 Si2 Si 0.626426667 0.6378999996666667 0.5668900013333333
 Si2 Si 0.626426667 0.6378999996666667 0.43310999866666666
 Si2 Si 0.37357333299999995 0.36210000033333334
  0.5668900013333333
 Si2 Si 0.626426667 0.36210000033333334 0.5668900013333333
 Si2 Si 0.37357333299999995 0.6378999996666667
  0.43310999866666666
 Si2 Si 0.37357333299999995 0.6378999996666667
  0.5668900013333333
 Si2 Si 0.626426667 0.36210000033333334 0.43310999866666666
 Si2 Si 0.5402399996666667 0.528766667 0.43310999866666666
 Si2 Si 0.4597600003333333 0.471233333 0.5668900013333333
 Si2 Si 0.4597600003333333 0.471233333 0.43310999866666666
 Si2 Si 0.5402399996666667 0.528766667 0.5668900013333333
 Si2 Si 0.4597600003333333 0.528766667 0.5668900013333333
 Si2 Si 0.5402399996666667 0.471233333 0.43310999866666666
 Si2 Si 0.5402399996666667 0.471233333 0.5668900013333333
 Si2 Si 0.4597600003333333 0.528766667 0.43310999866666666
 Si3 Si 0.39648333199999997 0.435259998 0.3333333333333333
 Si3 Si 0.39648333199999997 0.435259998 0.6666666666666666
 Si3 Si 0.6035166679999999 0.564740002 0.3333333333333333
 Si3 Si 0.6035166679999999 0.564740002 0.6666666666666666
 Si3 Si 0.6035166679999999 0.435259998 0.3333333333333333
 Si3 Si 0.6035166679999999 0.435259998 0.6666666666666666
 Si3 Si 0.39648333199999997 0.564740002 0.3333333333333333
 Si3 Si 0.39648333199999997 0.564740002 0.6666666666666666
 Si3 Si 0.5631499986666666 0.6019266646666667
  0.3333333333333333
 Si3 Si 0.5631499986666666 0.6019266646666667
  0.6666666666666666
 Si3 Si 0.4368500013333333 0.39807333533333333
  0.3333333333333333
 Si3 Si 0.4368500013333333 0.39807333533333333
  0.6666666666666666
 Si3 Si 0.4368500013333333 0.6019266646666667
  0.3333333333333333
 Si3 Si 0.4368500013333333 0.6019266646666667
  0.6666666666666666
 Si3 Si 0.5631499986666666 0.39807333533333333
  0.3333333333333333
 Si3 Si 0.5631499986666666 0.39807333533333333
  0.6666666666666666
 Si4 Si 0.35713999966666665 0.39739333099999996
  0.3333333333333333
 Si4 Si 0.35713999966666665 0.39739333099999996
  0.6666666666666666
 Si4 Si 0.6428600003333333 0.602606669 0.3333333333333333
 Si4 Si 0.6428600003333333 0.602606669 0.6666666666666666
 Si4 Si 0.6428600003333333 0.39739333099999996
  0.3333333333333333
 Si4 Si 0.6428600003333333 0.39739333099999996
  0.6666666666666666
 Si4 Si 0.35713999966666665 0.602606669 0.3333333333333333
 Si4 Si 0.35713999966666665 0.602606669 0.6666666666666666
 Si4 Si 0.5238066663333333 0.5640599976666667
  0.3333333333333333
 Si4 Si 0.5238066663333333 0.5640599976666667
  0.6666666666666666
 Si4 Si 0.4761933336666666 0.4359400023333333
  0.3333333333333333
 Si4 Si 0.4761933336666666 0.4359400023333333
  0.6666666666666666
 Si4 Si 0.4761933336666666 0.5640599976666667
  0.3333333333333333
 Si4 Si 0.4761933336666666 0.5640599976666667
  0.6666666666666666
 Si4 Si 0.5238066663333333 0.4359400023333333
  0.3333333333333333
 Si4 Si 0.5238066663333333 0.4359400023333333
  0.6666666666666666
 O1 O 0.398270001 0.37004666766666666 0.429213335
 O1 O 0.601729999 0.6299533323333333 0.570786665
 O1 O 0.601729999 0.6299533323333333 0.429213335
 O1 O 0.398270001 0.37004666766666666 0.570786665
 O1 O 0.601729999 0.37004666766666666 0.570786665
 O1 O 0.398270001 0.6299533323333333 0.429213335
 O1 O 0.398270001 0.6299533323333333 0.570786665
 O1 O 0.601729999 0.37004666766666666 0.429213335
 O1 O 0.5649366676666666 0.5367133343333333 0.429213335
 O1 O 0.43506333233333333 0.46328666566666665 0.570786665
 O1 O 0.43506333233333333 0.46328666566666665 0.429213335
 O1 O 0.5649366676666666 0.5367133343333333 0.570786665
 O1 O 0.43506333233333333 0.5367133343333333 0.570786665
 O1 O 0.5649366676666666 0.46328666566666665 0.429213335
 O1 O 0.5649366676666666 0.46328666566666665 0.570786665
 O1 O 0.43506333233333333 0.5367133343333333 0.429213335
 O2 O 0.4365099966666666 0.380486667 0.3909700016666666
 O2 O 0.5634900033333333 0.619513333 0.6090299983333334
 O2 O 0.5634900033333333 0.619513333 0.3909700016666666
 O2 O 0.4365099966666666 0.380486667 0.6090299983333334
 O2 O 0.5634900033333333 0.380486667 0.6090299983333334
 O2 O 0.4365099966666666 0.619513333 0.3909700016666666
 O2 O 0.4365099966666666 0.619513333 0.6090299983333334
 O2 O 0.5634900033333333 0.380486667 0.3909700016666666
 O2 O 0.6031766633333333 0.5471533336666666 0.3909700016666666
 O2 O 0.39682333666666664 0.4528466663333333
  0.6090299983333334
 O2 O 0.39682333666666664 0.4528466663333333
  0.3909700016666666
 O2 O 0.6031766633333333 0.5471533336666666 0.6090299983333334
 O2 O 0.39682333666666664 0.5471533336666666
  0.6090299983333334
 O2 O 0.6031766633333333 0.4528466663333333 0.3909700016666666
 O2 O 0.6031766633333333 0.4528466663333333 0.6090299983333334
 O2 O 0.39682333666666664 0.5471533336666666
  0.3909700016666666
 O3 O 0.42577667033333333 0.3333333333333333
  0.41249000033333333
 O3 O 0.42577667033333333 0.6666666666666666
  0.41249000033333333
 O3 O 0.5742233296666667 0.3333333333333333 0.5875099996666666
 O3 O 0.5742233296666667 0.6666666666666666 0.5875099996666666
 O3 O 0.5742233296666667 0.3333333333333333
  0.41249000033333333
 O3 O 0.5742233296666667 0.6666666666666666
  0.41249000033333333
 O3 O 0.42577667033333333 0.3333333333333333
  0.5875099996666666
 O3 O 0.42577667033333333 0.6666666666666666
  0.5875099996666666
 O3 O 0.592443337 0.5 0.41249000033333333
 O3 O 0.407556663 0.5 0.5875099996666666
 O3 O 0.407556663 0.5 0.41249000033333333
 O3 O 0.592443337 0.5 0.5875099996666666
 O4 O 0.430979997 0.36505999899999997 0.5
 O4 O 0.569020003 0.6349400009999999 0.5
 O4 O 0.569020003 0.36505999899999997 0.5
 O4 O 0.430979997 0.6349400009999999 0.5
 O4 O 0.5976466636666666 0.5317266656666666 0.5
 O4 O 0.4023533363333333 0.4682733343333333 0.5
 O4 O 0.4023533363333333 0.5317266656666666 0.5
 O4 O 0.5976466636666666 0.4682733343333333 0.5
 O5 O 0.3708633333333333 0.3333333333333333 0.4120933313333333
 O5 O 0.3708633333333333 0.6666666666666666 0.4120933313333333
 O5 O 0.6291366666666667 0.3333333333333333 0.5879066686666666
 O5 O 0.6291366666666667 0.6666666666666666 0.5879066686666666
 O5 O 0.6291366666666667 0.3333333333333333 0.4120933313333333
 O5 O 0.6291366666666667 0.6666666666666666 0.4120933313333333
 O5 O 0.3708633333333333 0.3333333333333333 0.5879066686666666
 O5 O 0.3708633333333333 0.6666666666666666 0.5879066686666666
 O5 O 0.53753 0.5 0.4120933313333333
 O5 O 0.46246999999999994 0.5 0.5879066686666666
 O5 O 0.46246999999999994 0.5 0.4120933313333333
 O5 O 0.53753 0.5 0.5879066686666666
 O6 O 0.36554666599999996 0.3648333326666666 0.5
 O6 O 0.634453334 0.6351666673333334 0.5
 O6 O 0.634453334 0.3648333326666666 0.5
 O6 O 0.36554666599999996 0.6351666673333334 0.5
 O6 O 0.5322133326666667 0.5314999993333334 0.5
 O6 O 0.4677866673333333 0.46850000066666664 0.5
 O6 O 0.4677866673333333 0.5314999993333334 0.5
 O6 O 0.5322133326666667 0.46850000066666664 0.5
 O7 O 0.35979333266666663 0.38023999833333333
  0.39115333566666666
 O7 O 0.6402066673333333 0.6197600016666667 0.6088466643333333
 O7 O 0.6402066673333333 0.6197600016666667
  0.39115333566666666
 O7 O 0.35979333266666663 0.38023999833333333
  0.6088466643333333
 O7 O 0.6402066673333333 0.38023999833333333
  0.6088466643333333
 O7 O 0.35979333266666663 0.6197600016666667
  0.39115333566666666
 O7 O 0.35979333266666663 0.6197600016666667
  0.6088466643333333
 O7 O 0.6402066673333333 0.38023999833333333
  0.39115333566666666
 O7 O 0.5264599993333333 0.546906665 0.39115333566666666
 O7 O 0.4735400006666667 0.453093335 0.6088466643333333
 O7 O 0.4735400006666667 0.453093335 0.39115333566666666
 O7 O 0.5264599993333333 0.546906665 0.6088466643333333
 O7 O 0.4735400006666667 0.546906665 0.6088466643333333
 O7 O 0.5264599993333333 0.453093335 0.39115333566666666
 O7 O 0.5264599993333333 0.453093335 0.6088466643333333
 O7 O 0.4735400006666667 0.546906665 0.39115333566666666
 O8 O 0.41666666666666663 0.41666666666666663
  0.3333333333333333
 O8 O 0.41666666666666663 0.41666666666666663
  0.6666666666666666
 O8 O 0.5833333333333333 0.5833333333333333 0.3333333333333333
 O8 O 0.5833333333333333 0.5833333333333333 0.6666666666666666
 O8 O 0.5833333333333333 0.41666666666666663
  0.3333333333333333
 O8 O 0.5833333333333333 0.41666666666666663
  0.6666666666666666
 O8 O 0.41666666666666663 0.5833333333333333
  0.3333333333333333
 O8 O 0.41666666666666663 0.5833333333333333
  0.6666666666666666
 O9 O 0.37454999966666663 0.4195899963333333
  0.3333333333333333
 O9 O 0.37454999966666663 0.4195899963333333
  0.6666666666666666
 O9 O 0.6254500003333333 0.5804100036666666 0.3333333333333333
 O9 O 0.6254500003333333 0.5804100036666666 0.6666666666666666
 O9 O 0.6254500003333333 0.4195899963333333 0.3333333333333333
 O9 O 0.6254500003333333 0.4195899963333333 0.6666666666666666
 O9 O 0.37454999966666663 0.5804100036666666
  0.3333333333333333
 O9 O 0.37454999966666663 0.5804100036666666
  0.6666666666666666
 O9 O 0.5412166663333333 0.586256663 0.3333333333333333
 O9 O 0.5412166663333333 0.586256663 0.6666666666666666
 O9 O 0.4587833336666667 0.413743337 0.3333333333333333
 O9 O 0.4587833336666667 0.413743337 0.6666666666666666
 O9 O 0.4587833336666667 0.586256663 0.3333333333333333
 O9 O 0.4587833336666667 0.586256663 0.6666666666666666
 O9 O 0.5412166663333333 0.413743337 0.3333333333333333
 O9 O 0.5412166663333333 0.413743337 0.6666666666666666
 O10 O 0.3333333333333333 0.408766667 0.3333333333333333
 O10 O 0.3333333333333333 0.408766667 0.6666666666666666
 O10 O 0.6666666666666666 0.408766667 0.3333333333333333
 O10 O 0.6666666666666666 0.408766667 0.6666666666666666
 O10 O 0.3333333333333333 0.5912333329999999
  0.3333333333333333
 O10 O 0.3333333333333333 0.5912333329999999
  0.6666666666666666
 O10 O 0.6666666666666666 0.5912333329999999
  0.3333333333333333
 O10 O 0.6666666666666666 0.5912333329999999
  0.6666666666666666
 O10 O 0.5 0.5754333336666666 0.3333333333333333
 O10 O 0.5 0.5754333336666666 0.6666666666666666
 O10 O 0.5 0.42456666633333334 0.3333333333333333
 O10 O 0.5 0.42456666633333334 0.6666666666666666
 O2 O 0.39682333666666664 0.4528466663333333 0.275696665
 O2 O 0.39682333666666664 0.4528466663333333 0.724303335
 O2 O 0.6031766633333333 0.5471533336666666 0.275696665
 O2 O 0.6031766633333333 0.5471533336666666 0.724303335
 O2 O 0.6031766633333333 0.4528466663333333 0.275696665
 O2 O 0.6031766633333333 0.4528466663333333 0.724303335
 O2 O 0.39682333666666664 0.5471533336666666 0.275696665
 O2 O 0.39682333666666664 0.5471533336666666 0.724303335
 O2 O 0.5634900033333333 0.619513333 0.275696665
 O2 O 0.5634900033333333 0.619513333 0.724303335
 O2 O 0.4365099966666666 0.380486667 0.275696665
 O2 O 0.4365099966666666 0.380486667 0.724303335
 O2 O 0.4365099966666666 0.619513333 0.275696665
 O2 O 0.4365099966666666 0.619513333 0.724303335
 O2 O 0.5634900033333333 0.380486667 0.275696665
 O2 O 0.5634900033333333 0.380486667 0.724303335
 O7 O 0.35979333266666663 0.38023999833333333 0.275513331
 O7 O 0.35979333266666663 0.38023999833333333 0.724486669
 O7 O 0.6402066673333333 0.6197600016666667 0.275513331
 O7 O 0.6402066673333333 0.6197600016666667 0.724486669
 O7 O 0.6402066673333333 0.38023999833333333 0.275513331
 O7 O 0.6402066673333333 0.38023999833333333 0.724486669
 O7 O 0.35979333266666663 0.6197600016666667 0.275513331
 O7 O 0.35979333266666663 0.6197600016666667 0.724486669
 O7 O 0.5264599993333333 0.546906665 0.275513331
 O7 O 0.5264599993333333 0.546906665 0.724486669
 O7 O 0.4735400006666667 0.453093335 0.275513331
 O7 O 0.4735400006666667 0.453093335 0.724486669
 O7 O 0.4735400006666667 0.546906665 0.275513331
 O7 O 0.4735400006666667 0.546906665 0.724486669
 O7 O 0.5264599993333333 0.453093335 0.275513331
 O7 O 0.5264599993333333 0.453093335 0.724486669
 Si1 Si 0.7563133339999999 0.36214666566666665
  0.4331133366666666
 Si1 Si 0.9103533326666666 0.6378533343333332
  0.5668866633333334
 Si1 Si 0.9103533326666666 0.6378533343333332
  0.4331133366666666
 Si1 Si 0.7563133339999999 0.36214666566666665
  0.5668866633333334
 Si1 Si 0.9103533326666666 0.36214666566666665
  0.5668866633333334
 Si1 Si 0.7563133339999999 0.6378533343333332
  0.4331133366666666
 Si1 Si 0.7563133339999999 0.6378533343333332
  0.5668866633333334
 Si1 Si 0.9103533326666666 0.36214666566666665
  0.4331133366666666
 Si1 Si 0.9229800006666666 0.5288133323333333
  0.4331133366666666
 Si1 Si 0.7436866659999999 0.4711866676666666
  0.5668866633333334
 Si1 Si 0.7436866659999999 0.4711866676666666
  0.4331133366666666
 Si1 Si 0.9229800006666666 0.5288133323333333
  0.5668866633333334
 Si1 Si 0.7436866659999999 0.5288133323333333
  0.5668866633333334
 Si1 Si 0.9229800006666666 0.4711866676666666
  0.4331133366666666
 Si1 Si 0.9229800006666666 0.4711866676666666
  0.5668866633333334
 Si1 Si 0.7436866659999999 0.5288133323333333
  0.4331133366666666
 Si2 Si 0.7069066663333332 0.36210000033333334
  0.43310999866666666
 Si2 Si 0.9597600003333333 0.6378999996666667
  0.5668900013333333
 Si2 Si 0.9597600003333333 0.6378999996666667
  0.43310999866666666
 Si2 Si 0.7069066663333332 0.36210000033333334
  0.5668900013333333
 Si2 Si 0.9597600003333333 0.36210000033333334
  0.5668900013333333
 Si2 Si 0.7069066663333332 0.6378999996666667
  0.43310999866666666
 Si2 Si 0.7069066663333332 0.6378999996666667
  0.5668900013333333
 Si2 Si 0.9597600003333333 0.36210000033333334
  0.43310999866666666
 Si2 Si 0.873573333 0.528766667 0.43310999866666666
 Si2 Si 0.7930933336666666 0.471233333 0.5668900013333333
 Si2 Si 0.7930933336666666 0.471233333 0.43310999866666666
 Si2 Si 0.873573333 0.528766667 0.5668900013333333
 Si2 Si 0.7930933336666666 0.528766667 0.5668900013333333
 Si2 Si 0.873573333 0.471233333 0.43310999866666666
 Si2 Si 0.873573333 0.471233333 0.5668900013333333
 Si2 Si 0.7930933336666666 0.528766667 0.43310999866666666
 Si3 Si 0.7298166653333333 0.435259998 0.3333333333333333
 Si3 Si 0.7298166653333333 0.435259998 0.6666666666666666
 Si3 Si 0.9368500013333332 0.564740002 0.3333333333333333
 Si3 Si 0.9368500013333332 0.564740002 0.6666666666666666
 Si3 Si 0.9368500013333332 0.435259998 0.3333333333333333
 Si3 Si 0.9368500013333332 0.435259998 0.6666666666666666
 Si3 Si 0.7298166653333333 0.564740002 0.3333333333333333
 Si3 Si 0.7298166653333333 0.564740002 0.6666666666666666
 Si3 Si 0.8964833319999999 0.6019266646666667
  0.3333333333333333
 Si3 Si 0.8964833319999999 0.6019266646666667
  0.6666666666666666
 Si3 Si 0.7701833346666667 0.39807333533333333
  0.3333333333333333
 Si3 Si 0.7701833346666667 0.39807333533333333
  0.6666666666666666
 Si3 Si 0.7701833346666667 0.6019266646666667
  0.3333333333333333
 Si3 Si 0.7701833346666667 0.6019266646666667
  0.6666666666666666
 Si3 Si 0.8964833319999999 0.39807333533333333
  0.3333333333333333
 Si3 Si 0.8964833319999999 0.39807333533333333
  0.6666666666666666
 Si4 Si 0.6904733329999999 0.39739333099999996
  0.3333333333333333
 Si4 Si 0.6904733329999999 0.39739333099999996
  0.6666666666666666
 Si4 Si 0.9761933336666666 0.602606669 0.3333333333333333
 Si4 Si 0.9761933336666666 0.602606669 0.6666666666666666
 Si4 Si 0.9761933336666666 0.39739333099999996
  0.3333333333333333
 Si4 Si 0.9761933336666666 0.39739333099999996
  0.6666666666666666
 Si4 Si 0.6904733329999999 0.602606669 0.3333333333333333
 Si4 Si 0.6904733329999999 0.602606669 0.6666666666666666
 Si4 Si 0.8571399996666667 0.5640599976666667
  0.3333333333333333
 Si4 Si 0.8571399996666667 0.5640599976666667
  0.6666666666666666
 Si4 Si 0.8095266669999999 0.4359400023333333
  0.3333333333333333
 Si4 Si 0.8095266669999999 0.4359400023333333
  0.6666666666666666
 Si4 Si 0.8095266669999999 0.5640599976666667
  0.3333333333333333
 Si4 Si 0.8095266669999999 0.5640599976666667
  0.6666666666666666
 Si4 Si 0.8571399996666667 0.4359400023333333
  0.3333333333333333
 Si4 Si 0.8571399996666667 0.4359400023333333
  0.6666666666666666
 O1 O 0.7316033343333332 0.37004666766666666 0.429213335
 O1 O 0.9350633323333333 0.6299533323333333 0.570786665
 O1 O 0.9350633323333333 0.6299533323333333 0.429213335
 O1 O 0.7316033343333332 0.37004666766666666 0.570786665
 O1 O 0.9350633323333333 0.37004666766666666 0.570786665
 O1 O 0.7316033343333332 0.6299533323333333 0.429213335
 O1 O 0.7316033343333332 0.6299533323333333 0.570786665
 O1 O 0.9350633323333333 0.37004666766666666 0.429213335
 O1 O 0.898270001 0.5367133343333333 0.429213335
 O1 O 0.7683966656666666 0.46328666566666665 0.570786665
 O1 O 0.7683966656666666 0.46328666566666665 0.429213335
 O1 O 0.898270001 0.5367133343333333 0.570786665
 O1 O 0.7683966656666666 0.5367133343333333 0.570786665
 O1 O 0.898270001 0.46328666566666665 0.429213335
 O1 O 0.898270001 0.46328666566666665 0.570786665
 O1 O 0.7683966656666666 0.5367133343333333 0.429213335
 O2 O 0.7698433299999999 0.380486667 0.3909700016666666
 O2 O 0.8968233366666667 0.619513333 0.6090299983333334
 O2 O 0.8968233366666667 0.619513333 0.3909700016666666
 O2 O 0.7698433299999999 0.380486667 0.6090299983333334
 O2 O 0.8968233366666667 0.380486667 0.6090299983333334
 O2 O 0.7698433299999999 0.619513333 0.3909700016666666
 O2 O 0.7698433299999999 0.619513333 0.6090299983333334
 O2 O 0.8968233366666667 0.380486667 0.3909700016666666
 O2 O 0.9365099966666666 0.5471533336666666 0.3909700016666666
 O2 O 0.73015667 0.4528466663333333 0.6090299983333334
 O2 O 0.73015667 0.4528466663333333 0.3909700016666666
 O2 O 0.9365099966666666 0.5471533336666666 0.6090299983333334
 O2 O 0.73015667 0.5471533336666666 0.6090299983333334
 O2 O 0.9365099966666666 0.4528466663333333 0.3909700016666666
 O2 O 0.9365099966666666 0.4528466663333333 0.6090299983333334
 O2 O 0.73015667 0.5471533336666666 0.3909700016666666
 O3 O 0.7591100036666667 0.3333333333333333
  0.41249000033333333
 O3 O 0.7591100036666667 0.6666666666666666
  0.41249000033333333
 O3 O 0.907556663 0.3333333333333333 0.5875099996666666
 O3 O 0.907556663 0.6666666666666666 0.5875099996666666
 O3 O 0.907556663 0.3333333333333333 0.41249000033333333
 O3 O 0.907556663 0.6666666666666666 0.41249000033333333
 O3 O 0.7591100036666667 0.3333333333333333 0.5875099996666666
 O3 O 0.7591100036666667 0.6666666666666666 0.5875099996666666
 O3 O 0.9257766703333332 0.5 0.41249000033333333
 O3 O 0.7408899963333333 0.5 0.5875099996666666
 O3 O 0.7408899963333333 0.5 0.41249000033333333
 O3 O 0.9257766703333332 0.5 0.5875099996666666
 O4 O 0.7643133303333334 0.36505999899999997 0.5
 O4 O 0.9023533363333334 0.6349400009999999 0.5
 O4 O 0.9023533363333334 0.36505999899999997 0.5
 O4 O 0.7643133303333334 0.6349400009999999 0.5
 O4 O 0.9309799969999999 0.5317266656666666 0.5
 O4 O 0.7356866696666666 0.4682733343333333 0.5
 O4 O 0.7356866696666666 0.5317266656666666 0.5
 O4 O 0.9309799969999999 0.4682733343333333 0.5
 O5 O 0.7041966666666666 0.3333333333333333 0.4120933313333333
 O5 O 0.7041966666666666 0.6666666666666666 0.4120933313333333
 O5 O 0.9624699999999999 0.3333333333333333 0.5879066686666666
 O5 O 0.9624699999999999 0.6666666666666666 0.5879066686666666
 O5 O 0.9624699999999999 0.3333333333333333 0.4120933313333333
 O5 O 0.9624699999999999 0.6666666666666666 0.4120933313333333
 O5 O 0.7041966666666666 0.3333333333333333 0.5879066686666666
 O5 O 0.7041966666666666 0.6666666666666666 0.5879066686666666
 O5 O 0.8708633333333333 0.5 0.4120933313333333
 O5 O 0.7958033333333332 0.5 0.5879066686666666
 O5 O 0.7958033333333332 0.5 0.4120933313333333
 O5 O 0.8708633333333333 0.5 0.5879066686666666
 O6 O 0.6988799993333332 0.3648333326666666 0.5
 O6 O 0.9677866673333333 0.6351666673333334 0.5
 O6 O 0.9677866673333333 0.3648333326666666 0.5
 O6 O 0.6988799993333332 0.6351666673333334 0.5
 O6 O 0.865546666 0.5314999993333334 0.5
 O6 O 0.8011200006666666 0.46850000066666664 0.5
 O6 O 0.8011200006666666 0.5314999993333334 0.5
 O6 O 0.865546666 0.46850000066666664 0.5
 O7 O 0.693126666 0.38023999833333333 0.39115333566666666
 O7 O 0.9735400006666666 0.6197600016666667 0.6088466643333333
 O7 O 0.9735400006666666 0.6197600016666667
  0.39115333566666666
 O7 O 0.693126666 0.38023999833333333 0.6088466643333333
 O7 O 0.9735400006666666 0.38023999833333333
  0.6088466643333333
 O7 O 0.693126666 0.6197600016666667 0.39115333566666666
 O7 O 0.693126666 0.6197600016666667 0.6088466643333333
 O7 O 0.9735400006666666 0.38023999833333333
  0.39115333566666666
 O7 O 0.8597933326666667 0.546906665 0.39115333566666666
 O7 O 0.806873334 0.453093335 0.6088466643333333
 O7 O 0.806873334 0.453093335 0.39115333566666666
 O7 O 0.8597933326666667 0.546906665 0.6088466643333333
 O7 O 0.806873334 0.546906665 0.6088466643333333
 O7 O 0.8597933326666667 0.453093335 0.39115333566666666
 O7 O 0.8597933326666667 0.453093335 0.6088466643333333
 O7 O 0.806873334 0.546906665 0.39115333566666666
 O8 O 0.75 0.41666666666666663 0.3333333333333333
 O8 O 0.75 0.41666666666666663 0.6666666666666666
 O8 O 0.9166666666666665 0.5833333333333333 0.3333333333333333
 O8 O 0.9166666666666665 0.5833333333333333 0.6666666666666666
 O8 O 0.9166666666666665 0.41666666666666663
  0.3333333333333333
 O8 O 0.9166666666666665 0.41666666666666663
  0.6666666666666666
 O8 O 0.75 0.5833333333333333 0.3333333333333333
 O8 O 0.75 0.5833333333333333 0.6666666666666666
 O9 O 0.707883333 0.4195899963333333 0.3333333333333333
 O9 O 0.707883333 0.4195899963333333 0.6666666666666666
 O9 O 0.9587833336666667 0.5804100036666666 0.3333333333333333
 O9 O 0.9587833336666667 0.5804100036666666 0.6666666666666666
 O9 O 0.9587833336666667 0.4195899963333333 0.3333333333333333
 O9 O 0.9587833336666667 0.4195899963333333 0.6666666666666666
 O9 O 0.707883333 0.5804100036666666 0.3333333333333333
 O9 O 0.707883333 0.5804100036666666 0.6666666666666666
 O9 O 0.8745499996666666 0.586256663 0.3333333333333333
 O9 O 0.8745499996666666 0.586256663 0.6666666666666666
 O9 O 0.7921166669999999 0.413743337 0.3333333333333333
 O9 O 0.7921166669999999 0.413743337 0.6666666666666666
 O9 O 0.7921166669999999 0.586256663 0.3333333333333333
 O9 O 0.7921166669999999 0.586256663 0.6666666666666666
 O9 O 0.8745499996666666 0.413743337 0.3333333333333333
 O9 O 0.8745499996666666 0.413743337 0.6666666666666666
 O10 O 0.6666666666666666 0.408766667 0.3333333333333333
 O10 O 0.6666666666666666 0.408766667 0.6666666666666666
 O10 O 1.0 0.408766667 0.3333333333333333
 O10 O 1.0 0.408766667 0.6666666666666666
 O10 O 0.6666666666666666 0.5912333329999999
  0.3333333333333333
 O10 O 0.6666666666666666 0.5912333329999999
  0.6666666666666666
 O10 O 1.0 0.5912333329999999 0.3333333333333333
 O10 O 1.0 0.5912333329999999 0.6666666666666666
 O10 O 0.8333333333333333 0.5754333336666666
  0.3333333333333333
 O10 O 0.8333333333333333 0.5754333336666666
  0.6666666666666666
 O10 O 0.8333333333333333 0.42456666633333334
  0.3333333333333333
 O10 O 0.8333333333333333 0.42456666633333334
  0.6666666666666666
 O2 O 0.73015667 0.4528466663333333 0.275696665
 O2 O 0.73015667 0.4528466663333333 0.724303335
 O2 O 0.9365099966666666 0.5471533336666666 0.275696665
 O2 O 0.9365099966666666 0.5471533336666666 0.724303335
 O2 O 0.9365099966666666 0.4528466663333333 0.275696665
 O2 O 0.9365099966666666 0.4528466663333333 0.724303335
 O2 O 0.73015667 0.5471533336666666 0.275696665
 O2 O 0.73015667 0.5471533336666666 0.724303335
 O2 O 0.8968233366666667 0.619513333 0.275696665
 O2 O 0.8968233366666667 0.619513333 0.724303335
 O2 O 0.7698433299999999 0.380486667 0.275696665
 O2 O 0.7698433299999999 0.380486667 0.724303335
 O2 O 0.7698433299999999 0.619513333 0.275696665
 O2 O 0.7698433299999999 0.619513333 0.724303335
 O2 O 0.8968233366666667 0.380486667 0.275696665
 O2 O 0.8968233366666667 0.380486667 0.724303335
 O7 O 0.693126666 0.38023999833333333 0.275513331
 O7 O 0.693126666 0.38023999833333333 0.724486669
 O7 O 0.9735400006666666 0.6197600016666667 0.275513331
 O7 O 0.9735400006666666 0.6197600016666667 0.724486669
 O7 O 0.9735400006666666 0.38023999833333333 0.275513331
 O7 O 0.9735400006666666 0.38023999833333333 0.724486669
 O7 O 0.693126666 0.6197600016666667 0.275513331
 O7 O 0.693126666 0.6197600016666667 0.724486669
 O7 O 0.8597933326666667 0.546906665 0.275513331
 O7 O 0.8597933326666667 0.546906665 0.724486669
 O7 O 0.806873334 0.453093335 0.275513331
 O7 O 0.806873334 0.453093335 0.724486669
 O7 O 0.806873334 0.546906665 0.275513331
 O7 O 0.806873334 0.546906665 0.724486669
 O7 O 0.8597933326666667 0.453093335 0.275513331
 O7 O 0.8597933326666667 0.453093335 0.724486669
 Si1 Si 0.08964666733333333 0.695479999 0.4331133366666666
 Si1 Si 0.243686666 0.9711866676666665 0.5668866633333334
 Si1 Si 0.243686666 0.9711866676666665 0.4331133366666666
 Si1 Si 0.08964666733333333 0.695479999 0.5668866633333334
 Si1 Si 0.243686666 0.695479999 0.5668866633333334
 Si1 Si 0.08964666733333333 0.9711866676666665
  0.4331133366666666
 Si1 Si 0.08964666733333333 0.9711866676666665
  0.5668866633333334
 Si1 Si 0.243686666 0.695479999 0.4331133366666666
 Si1 Si 0.256313334 0.8621466656666665 0.4331133366666666
 Si1 Si 0.07701999933333332 0.804520001 0.5668866633333334
 Si1 Si 0.07701999933333332 0.804520001 0.4331133366666666
 Si1 Si 0.256313334 0.8621466656666665 0.5668866633333334
 Si1 Si 0.07701999933333332 0.8621466656666665
  0.5668866633333334
 Si1 Si 0.256313334 0.804520001 0.4331133366666666
 Si1 Si 0.256313334 0.804520001 0.5668866633333334
 Si1 Si 0.07701999933333332 0.8621466656666665
  0.4331133366666666
 Si2 Si 0.040239999666666665 0.6954333336666667
  0.43310999866666666
 Si2 Si 0.2930933336666667 0.971233333 0.5668900013333333
 Si2 Si 0.2930933336666667 0.971233333 0.43310999866666666
 Si2 Si 0.040239999666666665 0.6954333336666667
  0.5668900013333333
 Si2 Si 0.2930933336666667 0.6954333336666667
  0.5668900013333333
 Si2 Si 0.040239999666666665 0.971233333 0.43310999866666666
 Si2 Si 0.040239999666666665 0.971233333 0.5668900013333333
 Si2 Si 0.2930933336666667 0.6954333336666667
  0.43310999866666666
 Si2 Si 0.20690666633333332 0.8621000003333332
  0.43310999866666666
 Si2 Si 0.126426667 0.8045666663333333 0.5668900013333333
 Si2 Si 0.126426667 0.8045666663333333 0.43310999866666666
 Si2 Si 0.20690666633333332 0.8621000003333332
  0.5668900013333333
 Si2 Si 0.126426667 0.8621000003333332 0.5668900013333333
 Si2 Si 0.20690666633333332 0.8045666663333333
  0.43310999866666666
 Si2 Si 0.20690666633333332 0.8045666663333333
  0.5668900013333333
 Si2 Si 0.126426667 0.8621000003333332 0.43310999866666666
 Si3 Si 0.06314999866666667 0.7685933313333333
  0.3333333333333333
 Si3 Si 0.06314999866666667 0.7685933313333333
  0.6666666666666666
 Si3 Si 0.27018333466666666 0.8980733353333332
  0.3333333333333333
 Si3 Si 0.27018333466666666 0.8980733353333332
  0.6666666666666666
 Si3 Si 0.27018333466666666 0.7685933313333333
  0.3333333333333333
 Si3 Si 0.27018333466666666 0.7685933313333333
  0.6666666666666666
 Si3 Si 0.06314999866666667 0.8980733353333332
  0.3333333333333333
 Si3 Si 0.06314999866666667 0.8980733353333332
  0.6666666666666666
 Si3 Si 0.22981666533333334 0.935259998 0.3333333333333333
 Si3 Si 0.22981666533333334 0.935259998 0.6666666666666666
 Si3 Si 0.10351666799999999 0.7314066686666667
  0.3333333333333333
 Si3 Si 0.10351666799999999 0.7314066686666667
  0.6666666666666666
 Si3 Si 0.10351666799999999 0.935259998 0.3333333333333333
 Si3 Si 0.10351666799999999 0.935259998 0.6666666666666666
 Si3 Si 0.22981666533333334 0.7314066686666667
  0.3333333333333333
 Si3 Si 0.22981666533333334 0.7314066686666667
  0.6666666666666666
 Si4 Si 0.023806666333333334 0.7307266643333332
  0.3333333333333333
 Si4 Si 0.023806666333333334 0.7307266643333332
  0.6666666666666666
 Si4 Si 0.30952666700000003 0.9359400023333333
  0.3333333333333333
 Si4 Si 0.30952666700000003 0.9359400023333333
  0.6666666666666666
 Si4 Si 0.30952666700000003 0.7307266643333332
  0.3333333333333333
 Si4 Si 0.30952666700000003 0.7307266643333332
  0.6666666666666666
 Si4 Si 0.023806666333333334 0.9359400023333333
  0.3333333333333333
 Si4 Si 0.023806666333333334 0.9359400023333333
  0.6666666666666666
 Si4 Si 0.190473333 0.897393331 0.3333333333333333
 Si4 Si 0.190473333 0.897393331 0.6666666666666666
 Si4 Si 0.14286000033333332 0.7692733356666666
  0.3333333333333333
 Si4 Si 0.14286000033333332 0.7692733356666666
  0.6666666666666666
 Si4 Si 0.14286000033333332 0.897393331 0.3333333333333333
 Si4 Si 0.14286000033333332 0.897393331 0.6666666666666666
 Si4 Si 0.190473333 0.7692733356666666 0.3333333333333333
 Si4 Si 0.190473333 0.7692733356666666 0.6666666666666666
 O1 O 0.06493666766666667 0.703380001 0.429213335
 O1 O 0.2683966656666667 0.9632866656666665 0.570786665
 O1 O 0.2683966656666667 0.9632866656666665 0.429213335
 O1 O 0.06493666766666667 0.703380001 0.570786665
 O1 O 0.2683966656666667 0.703380001 0.570786665
 O1 O 0.06493666766666667 0.9632866656666665 0.429213335
 O1 O 0.06493666766666667 0.9632866656666665 0.570786665
 O1 O 0.2683966656666667 0.703380001 0.429213335
 O1 O 0.23160333433333333 0.8700466676666667 0.429213335
 O1 O 0.101729999 0.796619999 0.570786665
 O1 O 0.101729999 0.796619999 0.429213335
 O1 O 0.23160333433333333 0.8700466676666667 0.570786665
 O1 O 0.101729999 0.8700466676666667 0.570786665
 O1 O 0.23160333433333333 0.796619999 0.429213335
 O1 O 0.23160333433333333 0.796619999 0.570786665
 O1 O 0.101729999 0.8700466676666667 0.429213335
 O2 O 0.10317666333333332 0.7138200003333333
  0.3909700016666666
 O2 O 0.23015666999999998 0.9528466663333333
  0.6090299983333334
 O2 O 0.23015666999999998 0.9528466663333333
  0.3909700016666666
 O2 O 0.10317666333333332 0.7138200003333333
  0.6090299983333334
 O2 O 0.23015666999999998 0.7138200003333333
  0.6090299983333334
 O2 O 0.10317666333333332 0.9528466663333333
  0.3909700016666666
 O2 O 0.10317666333333332 0.9528466663333333
  0.6090299983333334
 O2 O 0.23015666999999998 0.7138200003333333
  0.3909700016666666
 O2 O 0.26984333 0.880486667 0.3909700016666666
 O2 O 0.06349000333333334 0.7861799996666666
  0.6090299983333334
 O2 O 0.06349000333333334 0.7861799996666666
  0.3909700016666666
 O2 O 0.26984333 0.880486667 0.6090299983333334
 O2 O 0.06349000333333334 0.880486667 0.6090299983333334
 O2 O 0.26984333 0.7861799996666666 0.3909700016666666
 O2 O 0.26984333 0.7861799996666666 0.6090299983333334
 O2 O 0.06349000333333334 0.880486667 0.3909700016666666
 O3 O 0.092443337 0.6666666666666666 0.41249000033333333
 O3 O 0.092443337 1.0 0.41249000033333333
 O3 O 0.24088999633333333 0.6666666666666666
  0.5875099996666666
 O3 O 0.24088999633333333 1.0 0.5875099996666666
 O3 O 0.24088999633333333 0.6666666666666666
  0.41249000033333333
 O3 O 0.24088999633333333 1.0 0.41249000033333333
 O3 O 0.092443337 0.6666666666666666 0.5875099996666666
 O3 O 0.092443337 1.0 0.5875099996666666
 O3 O 0.25911000366666664 0.8333333333333333
  0.41249000033333333
 O3 O 0.07422332966666667 0.8333333333333333
  0.5875099996666666
 O3 O 0.07422332966666667 0.8333333333333333
  0.41249000033333333
 O3 O 0.25911000366666664 0.8333333333333333
  0.5875099996666666
 O4 O 0.09764666366666667 0.6983933323333333 0.5
 O4 O 0.23568666966666665 0.9682733343333332 0.5
 O4 O 0.23568666966666665 0.6983933323333333 0.5
 O4 O 0.09764666366666667 0.9682733343333332 0.5
 O4 O 0.2643133303333333 0.8650599989999999 0.5
 O4 O 0.069020003 0.8016066676666667 0.5
 O4 O 0.069020003 0.8650599989999999 0.5
 O4 O 0.2643133303333333 0.8016066676666667 0.5
 O5 O 0.03753 0.6666666666666666 0.4120933313333333
 O5 O 0.03753 1.0 0.4120933313333333
 O5 O 0.29580333333333336 0.6666666666666666
  0.5879066686666666
 O5 O 0.29580333333333336 1.0 0.5879066686666666
 O5 O 0.29580333333333336 0.6666666666666666
  0.4120933313333333
 O5 O 0.29580333333333336 1.0 0.4120933313333333
 O5 O 0.03753 0.6666666666666666 0.5879066686666666
 O5 O 0.03753 1.0 0.5879066686666666
 O5 O 0.20419666666666667 0.8333333333333333
  0.4120933313333333
 O5 O 0.12913666666666665 0.8333333333333333
  0.5879066686666666
 O5 O 0.12913666666666665 0.8333333333333333
  0.4120933313333333
 O5 O 0.20419666666666667 0.8333333333333333
  0.5879066686666666
 O6 O 0.03221333266666667 0.6981666659999999 0.5
 O6 O 0.30112000066666667 0.9685000006666666 0.5
 O6 O 0.30112000066666667 0.6981666659999999 0.5
 O6 O 0.03221333266666667 0.9685000006666666 0.5
 O6 O 0.19887999933333333 0.8648333326666666 0.5
 O6 O 0.134453334 0.8018333339999999 0.5
 O6 O 0.134453334 0.8648333326666666 0.5
 O6 O 0.19887999933333333 0.8018333339999999 0.5
 O7 O 0.02645999933333333 0.7135733316666666
  0.39115333566666666
 O7 O 0.306873334 0.9530933349999999 0.6088466643333333
 O7 O 0.306873334 0.9530933349999999 0.39115333566666666
 O7 O 0.02645999933333333 0.7135733316666666
  0.6088466643333333
 O7 O 0.306873334 0.7135733316666666 0.6088466643333333
 O7 O 0.02645999933333333 0.9530933349999999
  0.39115333566666666
 O7 O 0.02645999933333333 0.9530933349999999
  0.6088466643333333
 O7 O 0.306873334 0.7135733316666666 0.39115333566666666
 O7 O 0.19312666599999997 0.8802399983333333
  0.39115333566666666
 O7 O 0.14020666733333334 0.7864266683333333
  0.6088466643333333
 O7 O 0.14020666733333334 0.7864266683333333
  0.39115333566666666
 O7 O 0.19312666599999997 0.8802399983333333
  0.6088466643333333
 O7 O 0.14020666733333334 0.8802399983333333
  0.6088466643333333
 O7 O 0.19312666599999997 0.7864266683333333
  0.39115333566666666
 O7 O 0.19312666599999997 0.7864266683333333
  0.6088466643333333
 O7 O 0.14020666733333334 0.8802399983333333
  0.39115333566666666
 O8 O 0.08333333333333333 0.75 0.3333333333333333
 O8 O 0.08333333333333333 0.75 0.6666666666666666
 O8 O 0.25 0.9166666666666665 0.3333333333333333
 O8 O 0.25 0.9166666666666665 0.6666666666666666
 O8 O 0.25 0.75 0.3333333333333333
 O8 O 0.25 0.75 0.6666666666666666
 O8 O 0.08333333333333333 0.9166666666666665
  0.3333333333333333
 O8 O 0.08333333333333333 0.9166666666666665
  0.6666666666666666
 O9 O 0.04121666633333333 0.7529233296666666
  0.3333333333333333
 O9 O 0.04121666633333333 0.7529233296666666
  0.6666666666666666
 O9 O 0.292116667 0.9137433369999999 0.3333333333333333
 O9 O 0.292116667 0.9137433369999999 0.6666666666666666
 O9 O 0.292116667 0.7529233296666666 0.3333333333333333
 O9 O 0.292116667 0.7529233296666666 0.6666666666666666
 O9 O 0.04121666633333333 0.9137433369999999
  0.3333333333333333
 O9 O 0.04121666633333333 0.9137433369999999
  0.6666666666666666
 O9 O 0.20788333299999998 0.9195899963333334
  0.3333333333333333
 O9 O 0.20788333299999998 0.9195899963333334
  0.6666666666666666
 O9 O 0.12545000033333334 0.7470766703333334
  0.3333333333333333
 O9 O 0.12545000033333334 0.7470766703333334
  0.6666666666666666
 O9 O 0.12545000033333334 0.9195899963333334
  0.3333333333333333
 O9 O 0.12545000033333334 0.9195899963333334
  0.6666666666666666
 O9 O 0.20788333299999998 0.7470766703333334
  0.3333333333333333
 O9 O 0.20788333299999998 0.7470766703333334
  0.6666666666666666
 O10 O 0.0 0.7421000003333333 0.3333333333333333
 O10 O 0.0 0.7421000003333333 0.6666666666666666
 O10 O 0.3333333333333333 0.7421000003333333
  0.3333333333333333
 O10 O 0.3333333333333333 0.7421000003333333
  0.6666666666666666
 O10 O 0.0 0.9245666663333332 0.3333333333333333
 O10 O 0.0 0.9245666663333332 0.6666666666666666
 O10 O 0.3333333333333333 0.9245666663333332
  0.3333333333333333
 O10 O 0.3333333333333333 0.9245666663333332
  0.6666666666666666
 O10 O 0.16666666666666666 0.9087666669999999
  0.3333333333333333
 O10 O 0.16666666666666666 0.9087666669999999
  0.6666666666666666
 O10 O 0.16666666666666666 0.7578999996666667
  0.3333333333333333
 O10 O 0.16666666666666666 0.7578999996666667
  0.6666666666666666
 O2 O 0.06349000333333334 0.7861799996666666 0.275696665
 O2 O 0.06349000333333334 0.7861799996666666 0.724303335
 O2 O 0.26984333 0.880486667 0.275696665
 O2 O 0.26984333 0.880486667 0.724303335
 O2 O 0.26984333 0.7861799996666666 0.275696665
 O2 O 0.26984333 0.7861799996666666 0.724303335
 O2 O 0.06349000333333334 0.880486667 0.275696665
 O2 O 0.06349000333333334 0.880486667 0.724303335
 O2 O 0.23015666999999998 0.9528466663333333 0.275696665
 O2 O 0.23015666999999998 0.9528466663333333 0.724303335
 O2 O 0.10317666333333332 0.7138200003333333 0.275696665
 O2 O 0.10317666333333332 0.7138200003333333 0.724303335
 O2 O 0.10317666333333332 0.9528466663333333 0.275696665
 O2 O 0.10317666333333332 0.9528466663333333 0.724303335
 O2 O 0.23015666999999998 0.7138200003333333 0.275696665
 O2 O 0.23015666999999998 0.7138200003333333 0.724303335
 O7 O 0.02645999933333333 0.7135733316666666 0.275513331
 O7 O 0.02645999933333333 0.7135733316666666 0.724486669
 O7 O 0.306873334 0.9530933349999999 0.275513331
 O7 O 0.306873334 0.9530933349999999 0.724486669
 O7 O 0.306873334 0.7135733316666666 0.275513331
 O7 O 0.306873334 0.7135733316666666 0.724486669
 O7 O 0.02645999933333333 0.9530933349999999 0.275513331
 O7 O 0.02645999933333333 0.9530933349999999 0.724486669
 O7 O 0.19312666599999997 0.8802399983333333 0.275513331
 O7 O 0.19312666599999997 0.8802399983333333 0.724486669
 O7 O 0.14020666733333334 0.7864266683333333 0.275513331
 O7 O 0.14020666733333334 0.7864266683333333 0.724486669
 O7 O 0.14020666733333334 0.8802399983333333 0.275513331
 O7 O 0.14020666733333334 0.8802399983333333 0.724486669
 O7 O 0.19312666599999997 0.7864266683333333 0.275513331
 O7 O 0.19312666599999997 0.7864266683333333 0.724486669
 Si1 Si 0.42298000066666663 0.695479999 0.4331133366666666
 Si1 Si 0.5770199993333334 0.9711866676666665
  0.5668866633333334
 Si1 Si 0.5770199993333334 0.9711866676666665
  0.4331133366666666
 Si1 Si 0.42298000066666663 0.695479999 0.5668866633333334
 Si1 Si 0.5770199993333334 0.695479999 0.5668866633333334
 Si1 Si 0.42298000066666663 0.9711866676666665
  0.4331133366666666
 Si1 Si 0.42298000066666663 0.9711866676666665
  0.5668866633333334
 Si1 Si 0.5770199993333334 0.695479999 0.4331133366666666
 Si1 Si 0.5896466673333334 0.8621466656666665
  0.4331133366666666
 Si1 Si 0.4103533326666666 0.804520001 0.5668866633333334
 Si1 Si 0.4103533326666666 0.804520001 0.4331133366666666
 Si1 Si 0.5896466673333334 0.8621466656666665
  0.5668866633333334
 Si1 Si 0.4103533326666666 0.8621466656666665
  0.5668866633333334
 Si1 Si 0.5896466673333334 0.804520001 0.4331133366666666
 Si1 Si 0.5896466673333334 0.804520001 0.5668866633333334
 Si1 Si 0.4103533326666666 0.8621466656666665
  0.4331133366666666
 Si2 Si 0.37357333299999995 0.6954333336666667
  0.43310999866666666
 Si2 Si 0.626426667 0.971233333 0.5668900013333333
 Si2 Si 0.626426667 0.971233333 0.43310999866666666
 Si2 Si 0.37357333299999995 0.6954333336666667
  0.5668900013333333
 Si2 Si 0.626426667 0.6954333336666667 0.5668900013333333
 Si2 Si 0.37357333299999995 0.971233333 0.43310999866666666
 Si2 Si 0.37357333299999995 0.971233333 0.5668900013333333
 Si2 Si 0.626426667 0.6954333336666667 0.43310999866666666
 Si2 Si 0.5402399996666667 0.8621000003333332
  0.43310999866666666
 Si2 Si 0.4597600003333333 0.8045666663333333
  0.5668900013333333
 Si2 Si 0.4597600003333333 0.8045666663333333
  0.43310999866666666
 Si2 Si 0.5402399996666667 0.8621000003333332
  0.5668900013333333
 Si2 Si 0.4597600003333333 0.8621000003333332
  0.5668900013333333
 Si2 Si 0.5402399996666667 0.8045666663333333
  0.43310999866666666
 Si2 Si 0.5402399996666667 0.8045666663333333
  0.5668900013333333
 Si2 Si 0.4597600003333333 0.8621000003333332
  0.43310999866666666
 Si3 Si 0.39648333199999997 0.7685933313333333
  0.3333333333333333
 Si3 Si 0.39648333199999997 0.7685933313333333
  0.6666666666666666
 Si3 Si 0.6035166679999999 0.8980733353333332
  0.3333333333333333
 Si3 Si 0.6035166679999999 0.8980733353333332
  0.6666666666666666
 Si3 Si 0.6035166679999999 0.7685933313333333
  0.3333333333333333
 Si3 Si 0.6035166679999999 0.7685933313333333
  0.6666666666666666
 Si3 Si 0.39648333199999997 0.8980733353333332
  0.3333333333333333
 Si3 Si 0.39648333199999997 0.8980733353333332
  0.6666666666666666
 Si3 Si 0.5631499986666666 0.935259998 0.3333333333333333
 Si3 Si 0.5631499986666666 0.935259998 0.6666666666666666
 Si3 Si 0.4368500013333333 0.7314066686666667
  0.3333333333333333
 Si3 Si 0.4368500013333333 0.7314066686666667
  0.6666666666666666
 Si3 Si 0.4368500013333333 0.935259998 0.3333333333333333
 Si3 Si 0.4368500013333333 0.935259998 0.6666666666666666
 Si3 Si 0.5631499986666666 0.7314066686666667
  0.3333333333333333
 Si3 Si 0.5631499986666666 0.7314066686666667
  0.6666666666666666
 Si4 Si 0.35713999966666665 0.7307266643333332
  0.3333333333333333
 Si4 Si 0.35713999966666665 0.7307266643333332
  0.6666666666666666
 Si4 Si 0.6428600003333333 0.9359400023333333
  0.3333333333333333
 Si4 Si 0.6428600003333333 0.9359400023333333
  0.6666666666666666
 Si4 Si 0.6428600003333333 0.7307266643333332
  0.3333333333333333
 Si4 Si 0.6428600003333333 0.7307266643333332
  0.6666666666666666
 Si4 Si 0.35713999966666665 0.9359400023333333
  0.3333333333333333
 Si4 Si 0.35713999966666665 0.9359400023333333
  0.6666666666666666
 Si4 Si 0.5238066663333333 0.897393331 0.3333333333333333
 Si4 Si 0.5238066663333333 0.897393331 0.6666666666666666
 Si4 Si 0.4761933336666666 0.7692733356666666
  0.3333333333333333
 Si4 Si 0.4761933336666666 0.7692733356666666
  0.6666666666666666
 Si4 Si 0.4761933336666666 0.897393331 0.3333333333333333
 Si4 Si 0.4761933336666666 0.897393331 0.6666666666666666
 Si4 Si 0.5238066663333333 0.7692733356666666
  0.3333333333333333
 Si4 Si 0.5238066663333333 0.7692733356666666
  0.6666666666666666
 O1 O 0.398270001 0.703380001 0.429213335
 O1 O 0.601729999 0.9632866656666665 0.570786665
 O1 O 0.601729999 0.9632866656666665 0.429213335
 O1 O 0.398270001 0.703380001 0.570786665
 O1 O 0.601729999 0.703380001 0.570786665
 O1 O 0.398270001 0.9632866656666665 0.429213335
 O1 O 0.398270001 0.9632866656666665 0.570786665
 O1 O 0.601729999 0.703380001 0.429213335
 O1 O 0.5649366676666666 0.8700466676666667 0.429213335
 O1 O 0.43506333233333333 0.796619999 0.570786665
 O1 O 0.43506333233333333 0.796619999 0.429213335
 O1 O 0.5649366676666666 0.8700466676666667 0.570786665
 O1 O 0.43506333233333333 0.8700466676666667 0.570786665
 O1 O 0.5649366676666666 0.796619999 0.429213335
 O1 O 0.5649366676666666 0.796619999 0.570786665
 O1 O 0.43506333233333333 0.8700466676666667 0.429213335
 O2 O 0.4365099966666666 0.7138200003333333 0.3909700016666666
 O2 O 0.5634900033333333 0.9528466663333333 0.6090299983333334
 O2 O 0.5634900033333333 0.9528466663333333 0.3909700016666666
 O2 O 0.4365099966666666 0.7138200003333333 0.6090299983333334
 O2 O 0.5634900033333333 0.7138200003333333 0.6090299983333334
 O2 O 0.4365099966666666 0.9528466663333333 0.3909700016666666
 O2 O 0.4365099966666666 0.9528466663333333 0.6090299983333334
 O2 O 0.5634900033333333 0.7138200003333333 0.3909700016666666
 O2 O 0.6031766633333333 0.880486667 0.3909700016666666
 O2 O 0.39682333666666664 0.7861799996666666
  0.6090299983333334
 O2 O 0.39682333666666664 0.7861799996666666
  0.3909700016666666
 O2 O 0.6031766633333333 0.880486667 0.6090299983333334
 O2 O 0.39682333666666664 0.880486667 0.6090299983333334
 O2 O 0.6031766633333333 0.7861799996666666 0.3909700016666666
 O2 O 0.6031766633333333 0.7861799996666666 0.6090299983333334
 O2 O 0.39682333666666664 0.880486667 0.3909700016666666
 O3 O 0.42577667033333333 0.6666666666666666
  0.41249000033333333
 O3 O 0.42577667033333333 1.0 0.41249000033333333
 O3 O 0.5742233296666667 0.6666666666666666 0.5875099996666666
 O3 O 0.5742233296666667 1.0 0.5875099996666666
 O3 O 0.5742233296666667 0.6666666666666666
  0.41249000033333333
 O3 O 0.5742233296666667 1.0 0.41249000033333333
 O3 O 0.42577667033333333 0.6666666666666666
  0.5875099996666666
 O3 O 0.42577667033333333 1.0 0.5875099996666666
 O3 O 0.592443337 0.8333333333333333 0.41249000033333333
 O3 O 0.407556663 0.8333333333333333 0.5875099996666666
 O3 O 0.407556663 0.8333333333333333 0.41249000033333333
 O3 O 0.592443337 0.8333333333333333 0.5875099996666666
 O4 O 0.430979997 0.6983933323333333 0.5
 O4 O 0.569020003 0.9682733343333332 0.5
 O4 O 0.569020003 0.6983933323333333 0.5
 O4 O 0.430979997 0.9682733343333332 0.5
 O4 O 0.5976466636666666 0.8650599989999999 0.5
 O4 O 0.4023533363333333 0.8016066676666667 0.5
 O4 O 0.4023533363333333 0.8650599989999999 0.5
 O4 O 0.5976466636666666 0.8016066676666667 0.5
 O5 O 0.3708633333333333 0.6666666666666666 0.4120933313333333
 O5 O 0.3708633333333333 1.0 0.4120933313333333
 O5 O 0.6291366666666667 0.6666666666666666 0.5879066686666666
 O5 O 0.6291366666666667 1.0 0.5879066686666666
 O5 O 0.6291366666666667 0.6666666666666666 0.4120933313333333
 O5 O 0.6291366666666667 1.0 0.4120933313333333
 O5 O 0.3708633333333333 0.6666666666666666 0.5879066686666666
 O5 O 0.3708633333333333 1.0 0.5879066686666666
 O5 O 0.53753 0.8333333333333333 0.4120933313333333
 O5 O 0.46246999999999994 0.8333333333333333
  0.5879066686666666
 O5 O 0.46246999999999994 0.8333333333333333
  0.4120933313333333
 O5 O 0.53753 0.8333333333333333 0.5879066686666666
 O6 O 0.36554666599999996 0.6981666659999999 0.5
 O6 O 0.634453334 0.9685000006666666 0.5
 O6 O 0.634453334 0.6981666659999999 0.5
 O6 O 0.36554666599999996 0.9685000006666666 0.5
 O6 O 0.5322133326666667 0.8648333326666666 0.5
 O6 O 0.4677866673333333 0.8018333339999999 0.5
 O6 O 0.4677866673333333 0.8648333326666666 0.5
 O6 O 0.5322133326666667 0.8018333339999999 0.5
 O7 O 0.35979333266666663 0.7135733316666666
  0.39115333566666666
 O7 O 0.6402066673333333 0.9530933349999999 0.6088466643333333
 O7 O 0.6402066673333333 0.9530933349999999
  0.39115333566666666
 O7 O 0.35979333266666663 0.7135733316666666
  0.6088466643333333
 O7 O 0.6402066673333333 0.7135733316666666 0.6088466643333333
 O7 O 0.35979333266666663 0.9530933349999999
  0.39115333566666666
 O7 O 0.35979333266666663 0.9530933349999999
  0.6088466643333333
 O7 O 0.6402066673333333 0.7135733316666666
  0.39115333566666666
 O7 O 0.5264599993333333 0.8802399983333333
  0.39115333566666666
 O7 O 0.4735400006666667 0.7864266683333333 0.6088466643333333
 O7 O 0.4735400006666667 0.7864266683333333
  0.39115333566666666
 O7 O 0.5264599993333333 0.8802399983333333 0.6088466643333333
 O7 O 0.4735400006666667 0.8802399983333333 0.6088466643333333
 O7 O 0.5264599993333333 0.7864266683333333
  0.39115333566666666
 O7 O 0.5264599993333333 0.7864266683333333 0.6088466643333333
 O7 O 0.4735400006666667 0.8802399983333333
  0.39115333566666666
 O8 O 0.41666666666666663 0.75 0.3333333333333333
 O8 O 0.41666666666666663 0.75 0.6666666666666666
 O8 O 0.5833333333333333 0.9166666666666665 0.3333333333333333
 O8 O 0.5833333333333333 0.9166666666666665 0.6666666666666666
 O8 O 0.5833333333333333 0.75 0.3333333333333333
 O8 O 0.5833333333333333 0.75 0.6666666666666666
 O8 O 0.41666666666666663 0.9166666666666665
  0.3333333333333333
 O8 O 0.41666666666666663 0.9166666666666665
  0.6666666666666666
 O9 O 0.37454999966666663 0.7529233296666666
  0.3333333333333333
 O9 O 0.37454999966666663 0.7529233296666666
  0.6666666666666666
 O9 O 0.6254500003333333 0.9137433369999999 0.3333333333333333
 O9 O 0.6254500003333333 0.9137433369999999 0.6666666666666666
 O9 O 0.6254500003333333 0.7529233296666666 0.3333333333333333
 O9 O 0.6254500003333333 0.7529233296666666 0.6666666666666666
 O9 O 0.37454999966666663 0.9137433369999999
  0.3333333333333333
 O9 O 0.37454999966666663 0.9137433369999999
  0.6666666666666666
 O9 O 0.5412166663333333 0.9195899963333334 0.3333333333333333
 O9 O 0.5412166663333333 0.9195899963333334 0.6666666666666666
 O9 O 0.4587833336666667 0.7470766703333334 0.3333333333333333
 O9 O 0.4587833336666667 0.7470766703333334 0.6666666666666666
 O9 O 0.4587833336666667 0.9195899963333334 0.3333333333333333
 O9 O 0.4587833336666667 0.9195899963333334 0.6666666666666666
 O9 O 0.5412166663333333 0.7470766703333334 0.3333333333333333
 O9 O 0.5412166663333333 0.7470766703333334 0.6666666666666666
 O10 O 0.3333333333333333 0.7421000003333333
  0.3333333333333333
 O10 O 0.3333333333333333 0.7421000003333333
  0.6666666666666666
 O10 O 0.6666666666666666 0.7421000003333333
  0.3333333333333333
 O10 O 0.6666666666666666 0.7421000003333333
  0.6666666666666666
 O10 O 0.3333333333333333 0.9245666663333332
  0.3333333333333333
 O10 O 0.3333333333333333 0.9245666663333332
  0.6666666666666666
 O10 O 0.6666666666666666 0.9245666663333332
  0.3333333333333333
 O10 O 0.6666666666666666 0.9245666663333332
  0.6666666666666666
 O10 O 0.5 0.9087666669999999 0.3333333333333333
 O10 O 0.5 0.9087666669999999 0.6666666666666666
 O10 O 0.5 0.7578999996666667 0.3333333333333333
 O10 O 0.5 0.7578999996666667 0.6666666666666666
 O2 O 0.39682333666666664 0.7861799996666666 0.275696665
 O2 O 0.39682333666666664 0.7861799996666666 0.724303335
 O2 O 0.6031766633333333 0.880486667 0.275696665
 O2 O 0.6031766633333333 0.880486667 0.724303335
 O2 O 0.6031766633333333 0.7861799996666666 0.275696665
 O2 O 0.6031766633333333 0.7861799996666666 0.724303335
 O2 O 0.39682333666666664 0.880486667 0.275696665
 O2 O 0.39682333666666664 0.880486667 0.724303335
 O2 O 0.5634900033333333 0.9528466663333333 0.275696665
 O2 O 0.5634900033333333 0.9528466663333333 0.724303335
 O2 O 0.4365099966666666 0.7138200003333333 0.275696665
 O2 O 0.4365099966666666 0.7138200003333333 0.724303335
 O2 O 0.4365099966666666 0.9528466663333333 0.275696665
 O2 O 0.4365099966666666 0.9528466663333333 0.724303335
 O2 O 0.5634900033333333 0.7138200003333333 0.275696665
 O2 O 0.5634900033333333 0.7138200003333333 0.724303335
 O7 O 0.35979333266666663 0.7135733316666666 0.275513331
 O7 O 0.35979333266666663 0.7135733316666666 0.724486669
 O7 O 0.6402066673333333 0.9530933349999999 0.275513331
 O7 O 0.6402066673333333 0.9530933349999999 0.724486669
 O7 O 0.6402066673333333 0.7135733316666666 0.275513331
 O7 O 0.6402066673333333 0.7135733316666666 0.724486669
 O7 O 0.35979333266666663 0.9530933349999999 0.275513331
 O7 O 0.35979333266666663 0.9530933349999999 0.724486669
 O7 O 0.5264599993333333 0.8802399983333333 0.275513331
 O7 O 0.5264599993333333 0.8802399983333333 0.724486669
 O7 O 0.4735400006666667 0.7864266683333333 0.275513331
 O7 O 0.4735400006666667 0.7864266683333333 0.724486669
 O7 O 0.4735400006666667 0.8802399983333333 0.275513331
 O7 O 0.4735400006666667 0.8802399983333333 0.724486669
 O7 O 0.5264599993333333 0.7864266683333333 0.275513331
 O7 O 0.5264599993333333 0.7864266683333333 0.724486669
 Si1 Si 0.7563133339999999 0.695479999 0.4331133366666666
 Si1 Si 0.9103533326666666 0.9711866676666665
  0.5668866633333334
 Si1 Si 0.9103533326666666 0.9711866676666665
  0.4331133366666666
 Si1 Si 0.7563133339999999 0.695479999 0.5668866633333334
 Si1 Si 0.9103533326666666 0.695479999 0.5668866633333334
 Si1 Si 0.7563133339999999 0.9711866676666665
  0.4331133366666666
 Si1 Si 0.7563133339999999 0.9711866676666665
  0.5668866633333334
 Si1 Si 0.9103533326666666 0.695479999 0.4331133366666666
 Si1 Si 0.9229800006666666 0.8621466656666665
  0.4331133366666666
 Si1 Si 0.7436866659999999 0.804520001 0.5668866633333334
 Si1 Si 0.7436866659999999 0.804520001 0.4331133366666666
 Si1 Si 0.9229800006666666 0.8621466656666665
  0.5668866633333334
 Si1 Si 0.7436866659999999 0.8621466656666665
  0.5668866633333334
 Si1 Si 0.9229800006666666 0.804520001 0.4331133366666666
 Si1 Si 0.9229800006666666 0.804520001 0.5668866633333334
 Si1 Si 0.7436866659999999 0.8621466656666665
  0.4331133366666666
 Si2 Si 0.7069066663333332 0.6954333336666667
  0.43310999866666666
 Si2 Si 0.9597600003333333 0.971233333 0.5668900013333333
 Si2 Si 0.9597600003333333 0.971233333 0.43310999866666666
 Si2 Si 0.7069066663333332 0.6954333336666667
  0.5668900013333333
 Si2 Si 0.9597600003333333 0.6954333336666667
  0.5668900013333333
 Si2 Si 0.7069066663333332 0.971233333 0.43310999866666666
 Si2 Si 0.7069066663333332 0.971233333 0.5668900013333333
 Si2 Si 0.9597600003333333 0.6954333336666667
  0.43310999866666666
 Si2 Si 0.873573333 0.8621000003333332 0.43310999866666666
 Si2 Si 0.7930933336666666 0.8045666663333333
  0.5668900013333333
 Si2 Si 0.7930933336666666 0.8045666663333333
  0.43310999866666666
 Si2 Si 0.873573333 0.8621000003333332 0.5668900013333333
 Si2 Si 0.7930933336666666 0.8621000003333332
  0.5668900013333333
 Si2 Si 0.873573333 0.8045666663333333 0.43310999866666666
 Si2 Si 0.873573333 0.8045666663333333 0.5668900013333333
 Si2 Si 0.7930933336666666 0.8621000003333332
  0.43310999866666666
 Si3 Si 0.7298166653333333 0.7685933313333333
  0.3333333333333333
 Si3 Si 0.7298166653333333 0.7685933313333333
  0.6666666666666666
 Si3 Si 0.9368500013333332 0.8980733353333332
  0.3333333333333333
 Si3 Si 0.9368500013333332 0.8980733353333332
  0.6666666666666666
 Si3 Si 0.9368500013333332 0.7685933313333333
  0.3333333333333333
 Si3 Si 0.9368500013333332 0.7685933313333333
  0.6666666666666666
 Si3 Si 0.7298166653333333 0.8980733353333332
  0.3333333333333333
 Si3 Si 0.7298166653333333 0.8980733353333332
  0.6666666666666666
 Si3 Si 0.8964833319999999 0.935259998 0.3333333333333333
 Si3 Si 0.8964833319999999 0.935259998 0.6666666666666666
 Si3 Si 0.7701833346666667 0.7314066686666667
  0.3333333333333333
 Si3 Si 0.7701833346666667 0.7314066686666667
  0.6666666666666666
 Si3 Si 0.7701833346666667 0.935259998 0.3333333333333333
 Si3 Si 0.7701833346666667 0.935259998 0.6666666666666666
 Si3 Si 0.8964833319999999 0.7314066686666667
  0.3333333333333333
 Si3 Si 0.8964833319999999 0.7314066686666667
  0.6666666666666666
 Si4 Si 0.6904733329999999 0.7307266643333332
  0.3333333333333333
 Si4 Si 0.6904733329999999 0.7307266643333332
  0.6666666666666666
 Si4 Si 0.9761933336666666 0.9359400023333333
  0.3333333333333333
 Si4 Si 0.9761933336666666 0.9359400023333333
  0.6666666666666666
 Si4 Si 0.9761933336666666 0.7307266643333332
  0.3333333333333333
 Si4 Si 0.9761933336666666 0.7307266643333332
  0.6666666666666666
 Si4 Si 0.6904733329999999 0.9359400023333333
  0.3333333333333333
 Si4 Si 0.6904733329999999 0.9359400023333333
  0.6666666666666666
 Si4 Si 0.8571399996666667 0.897393331 0.3333333333333333
 Si4 Si 0.8571399996666667 0.897393331 0.6666666666666666
 Si4 Si 0.8095266669999999 0.7692733356666666
  0.3333333333333333
 Si4 Si 0.8095266669999999 0.7692733356666666
  0.6666666666666666
 Si4 Si 0.8095266669999999 0.897393331 0.3333333333333333
 Si4 Si 0.8095266669999999 0.897393331 0.6666666666666666
 Si4 Si 0.8571399996666667 0.7692733356666666
  0.3333333333333333
 Si4 Si 0.8571399996666667 0.7692733356666666
  0.6666666666666666
 O1 O 0.7316033343333332 0.703380001 0.429213335
 O1 O 0.9350633323333333 0.9632866656666665 0.570786665
 O1 O 0.9350633323333333 0.9632866656666665 0.429213335
 O1 O 0.7316033343333332 0.703380001 0.570786665
 O1 O 0.9350633323333333 0.703380001 0.570786665
 O1 O 0.7316033343333332 0.9632866656666665 0.429213335
 O1 O 0.7316033343333332 0.9632866656666665 0.570786665
 O1 O 0.9350633323333333 0.703380001 0.429213335
 O1 O 0.898270001 0.8700466676666667 0.429213335
 O1 O 0.7683966656666666 0.796619999 0.570786665
 O1 O 0.7683966656666666 0.796619999 0.429213335
 O1 O 0.898270001 0.8700466676666667 0.570786665
 O1 O 0.7683966656666666 0.8700466676666667 0.570786665
 O1 O 0.898270001 0.796619999 0.429213335
 O1 O 0.898270001 0.796619999 0.570786665
 O1 O 0.7683966656666666 0.8700466676666667 0.429213335
 O2 O 0.7698433299999999 0.7138200003333333 0.3909700016666666
 O2 O 0.8968233366666667 0.9528466663333333 0.6090299983333334
 O2 O 0.8968233366666667 0.9528466663333333 0.3909700016666666
 O2 O 0.7698433299999999 0.7138200003333333 0.6090299983333334
 O2 O 0.8968233366666667 0.7138200003333333 0.6090299983333334
 O2 O 0.7698433299999999 0.9528466663333333 0.3909700016666666
 O2 O 0.7698433299999999 0.9528466663333333 0.6090299983333334
 O2 O 0.8968233366666667 0.7138200003333333 0.3909700016666666
 O2 O 0.9365099966666666 0.880486667 0.3909700016666666
 O2 O 0.73015667 0.7861799996666666 0.6090299983333334
 O2 O 0.73015667 0.7861799996666666 0.3909700016666666
 O2 O 0.9365099966666666 0.880486667 0.6090299983333334
 O2 O 0.73015667 0.880486667 0.6090299983333334
 O2 O 0.9365099966666666 0.7861799996666666 0.3909700016666666
 O2 O 0.9365099966666666 0.7861799996666666 0.6090299983333334
 O2 O 0.73015667 0.880486667 0.3909700016666666
 O3 O 0.7591100036666667 0.6666666666666666
  0.41249000033333333
 O3 O 0.7591100036666667 1.0 0.41249000033333333
 O3 O 0.907556663 0.6666666666666666 0.5875099996666666
 O3 O 0.907556663 1.0 0.5875099996666666
 O3 O 0.907556663 0.6666666666666666 0.41249000033333333
 O3 O 0.907556663 1.0 0.41249000033333333
 O3 O 0.7591100036666667 0.6666666666666666 0.5875099996666666
 O3 O 0.7591100036666667 1.0 0.5875099996666666
 O3 O 0.9257766703333332 0.8333333333333333
  0.41249000033333333
 O3 O 0.7408899963333333 0.8333333333333333 0.5875099996666666
 O3 O 0.7408899963333333 0.8333333333333333
  0.41249000033333333
 O3 O 0.9257766703333332 0.8333333333333333 0.5875099996666666
 O4 O 0.7643133303333334 0.6983933323333333 0.5
 O4 O 0.9023533363333334 0.9682733343333332 0.5
 O4 O 0.9023533363333334 0.6983933323333333 0.5
 O4 O 0.7643133303333334 0.9682733343333332 0.5
 O4 O 0.9309799969999999 0.8650599989999999 0.5
 O4 O 0.7356866696666666 0.8016066676666667 0.5
 O4 O 0.7356866696666666 0.8650599989999999 0.5
 O4 O 0.9309799969999999 0.8016066676666667 0.5
 O5 O 0.7041966666666666 0.6666666666666666 0.4120933313333333
 O5 O 0.7041966666666666 1.0 0.4120933313333333
 O5 O 0.9624699999999999 0.6666666666666666 0.5879066686666666
 O5 O 0.9624699999999999 1.0 0.5879066686666666
 O5 O 0.9624699999999999 0.6666666666666666 0.4120933313333333
 O5 O 0.9624699999999999 1.0 0.4120933313333333
 O5 O 0.7041966666666666 0.6666666666666666 0.5879066686666666
 O5 O 0.7041966666666666 1.0 0.5879066686666666
 O5 O 0.8708633333333333 0.8333333333333333 0.4120933313333333
 O5 O 0.7958033333333332 0.8333333333333333 0.5879066686666666
 O5 O 0.7958033333333332 0.8333333333333333 0.4120933313333333
 O5 O 0.8708633333333333 0.8333333333333333 0.5879066686666666
 O6 O 0.6988799993333332 0.6981666659999999 0.5
 O6 O 0.9677866673333333 0.9685000006666666 0.5
 O6 O 0.9677866673333333 0.6981666659999999 0.5
 O6 O 0.6988799993333332 0.9685000006666666 0.5
 O6 O 0.865546666 0.8648333326666666 0.5
 O6 O 0.8011200006666666 0.8018333339999999 0.5
 O6 O 0.8011200006666666 0.8648333326666666 0.5
 O6 O 0.865546666 0.8018333339999999 0.5
 O7 O 0.693126666 0.7135733316666666 0.39115333566666666
 O7 O 0.9735400006666666 0.9530933349999999 0.6088466643333333
 O7 O 0.9735400006666666 0.9530933349999999
  0.39115333566666666
 O7 O 0.693126666 0.7135733316666666 0.6088466643333333
 O7 O 0.9735400006666666 0.7135733316666666 0.6088466643333333
 O7 O 0.693126666 0.9530933349999999 0.39115333566666666
 O7 O 0.693126666 0.9530933349999999 0.6088466643333333
 O7 O 0.9735400006666666 0.7135733316666666
  0.39115333566666666
 O7 O 0.8597933326666667 0.8802399983333333
  0.39115333566666666
 O7 O 0.806873334 0.7864266683333333 0.6088466643333333
 O7 O 0.806873334 0.7864266683333333 0.39115333566666666
 O7 O 0.8597933326666667 0.8802399983333333 0.6088466643333333
 O7 O 0.806873334 0.8802399983333333 0.6088466643333333
 O7 O 0.8597933326666667 0.7864266683333333
  0.39115333566666666
 O7 O 0.8597933326666667 0.7864266683333333 0.6088466643333333
 O7 O 0.806873334 0.8802399983333333 0.39115333566666666
 O8 O 0.75 0.75 0.3333333333333333
 O8 O 0.75 0.75 0.6666666666666666
 O8 O 0.9166666666666665 0.9166666666666665 0.3333333333333333
 O8 O 0.9166666666666665 0.9166666666666665 0.6666666666666666
 O8 O 0.9166666666666665 0.75 0.3333333333333333
 O8 O 0.9166666666666665 0.75 0.6666666666666666
 O8 O 0.75 0.9166666666666665 0.3333333333333333
 O8 O 0.75 0.9166666666666665 0.6666666666666666
 O9 O 0.707883333 0.7529233296666666 0.3333333333333333
 O9 O 0.707883333 0.7529233296666666 0.6666666666666666
 O9 O 0.9587833336666667 0.9137433369999999 0.3333333333333333
 O9 O 0.9587833336666667 0.9137433369999999 0.6666666666666666
 O9 O 0.9587833336666667 0.7529233296666666 0.3333333333333333
 O9 O 0.9587833336666667 0.7529233296666666 0.6666666666666666
 O9 O 0.707883333 0.9137433369999999 0.3333333333333333
 O9 O 0.707883333 0.9137433369999999 0.6666666666666666
 O9 O 0.8745499996666666 0.9195899963333334 0.3333333333333333
 O9 O 0.8745499996666666 0.9195899963333334 0.6666666666666666
 O9 O 0.7921166669999999 0.7470766703333334 0.3333333333333333
 O9 O 0.7921166669999999 0.7470766703333334 0.6666666666666666
 O9 O 0.7921166669999999 0.9195899963333334 0.3333333333333333
 O9 O 0.7921166669999999 0.9195899963333334 0.6666666666666666
 O9 O 0.8745499996666666 0.7470766703333334 0.3333333333333333
 O9 O 0.8745499996666666 0.7470766703333334 0.6666666666666666
 O10 O 0.6666666666666666 0.7421000003333333
  0.3333333333333333
 O10 O 0.6666666666666666 0.7421000003333333
  0.6666666666666666
 O10 O 1.0 0.7421000003333333 0.3333333333333333
 O10 O 1.0 0.7421000003333333 0.6666666666666666
 O10 O 0.6666666666666666 0.9245666663333332
  0.3333333333333333
 O10 O 0.6666666666666666 0.9245666663333332
  0.6666666666666666
 O10 O 1.0 0.9245666663333332 0.3333333333333333
 O10 O 1.0 0.9245666663333332 0.6666666666666666
 O10 O 0.8333333333333333 0.9087666669999999
  0.3333333333333333
 O10 O 0.8333333333333333 0.9087666669999999
  0.6666666666666666
 O10 O 0.8333333333333333 0.7578999996666667
  0.3333333333333333
 O10 O 0.8333333333333333 0.7578999996666667
  0.6666666666666666
 O2 O 0.73015667 0.7861799996666666 0.275696665
 O2 O 0.73015667 0.7861799996666666 0.724303335
 O2 O 0.9365099966666666 0.880486667 0.275696665
 O2 O 0.9365099966666666 0.880486667 0.724303335
 O2 O 0.9365099966666666 0.7861799996666666 0.275696665
 O2 O 0.9365099966666666 0.7861799996666666 0.724303335
 O2 O 0.73015667 0.880486667 0.275696665
 O2 O 0.73015667 0.880486667 0.724303335
 O2 O 0.8968233366666667 0.9528466663333333 0.275696665
 O2 O 0.8968233366666667 0.9528466663333333 0.724303335
 O2 O 0.7698433299999999 0.7138200003333333 0.275696665
 O2 O 0.7698433299999999 0.7138200003333333 0.724303335
 O2 O 0.7698433299999999 0.9528466663333333 0.275696665
 O2 O 0.7698433299999999 0.9528466663333333 0.724303335
 O2 O 0.8968233366666667 0.7138200003333333 0.275696665
 O2 O 0.8968233366666667 0.7138200003333333 0.724303335
 O7 O 0.693126666 0.7135733316666666 0.275513331
 O7 O 0.693126666 0.7135733316666666 0.724486669
 O7 O 0.9735400006666666 0.9530933349999999 0.275513331
 O7 O 0.9735400006666666 0.9530933349999999 0.724486669
 O7 O 0.9735400006666666 0.7135733316666666 0.275513331
 O7 O 0.9735400006666666 0.7135733316666666 0.724486669
 O7 O 0.693126666 0.9530933349999999 0.275513331
 O7 O 0.693126666 0.9530933349999999 0.724486669
 O7 O 0.8597933326666667 0.8802399983333333 0.275513331
 O7 O 0.8597933326666667 0.8802399983333333 0.724486669
 O7 O 0.806873334 0.7864266683333333 0.275513331
 O7 O 0.806873334 0.7864266683333333 0.724486669
 O7 O 0.806873334 0.8802399983333333 0.275513331
 O7 O 0.806873334 0.8802399983333333 0.724486669
 O7 O 0.8597933326666667 0.7864266683333333 0.275513331
 O7 O 0.8597933326666667 0.7864266683333333 0.724486669
 Si1 Si 0.08964666733333333 0.028813332333333334
  0.7664466699999999
 Si1 Si 0.243686666 0.304520001 0.9002199966666666
 Si1 Si 0.243686666 0.304520001 0.7664466699999999
 Si1 Si 0.08964666733333333 0.028813332333333334
  0.9002199966666666
 Si1 Si 0.243686666 0.028813332333333334 0.9002199966666666
 Si1 Si 0.08964666733333333 0.304520001 0.7664466699999999
 Si1 Si 0.08964666733333333 0.304520001 0.9002199966666666
 Si1 Si 0.243686666 0.028813332333333334 0.7664466699999999
 Si1 Si 0.256313334 0.19547999900000002 0.7664466699999999
 Si1 Si 0.07701999933333332 0.13785333433333333
  0.9002199966666666
 Si1 Si 0.07701999933333332 0.13785333433333333
  0.7664466699999999
 Si1 Si 0.256313334 0.19547999900000002 0.9002199966666666
 Si1 Si 0.07701999933333332 0.19547999900000002
  0.9002199966666666
 Si1 Si 0.256313334 0.13785333433333333 0.7664466699999999
 Si1 Si 0.256313334 0.13785333433333333 0.9002199966666666
 Si1 Si 0.07701999933333332 0.19547999900000002
  0.7664466699999999
 Si2 Si 0.040239999666666665 0.028766667 0.7664433319999999
 Si2 Si 0.2930933336666667 0.30456666633333335
  0.9002233346666666
 Si2 Si 0.2930933336666667 0.30456666633333335
  0.7664433319999999
 Si2 Si 0.040239999666666665 0.028766667 0.9002233346666666
 Si2 Si 0.2930933336666667 0.028766667 0.9002233346666666
 Si2 Si 0.040239999666666665 0.30456666633333335
  0.7664433319999999
 Si2 Si 0.040239999666666665 0.30456666633333335
  0.9002233346666666
 Si2 Si 0.2930933336666667 0.028766667 0.7664433319999999
 Si2 Si 0.20690666633333332 0.19543333366666668
  0.7664433319999999
 Si2 Si 0.126426667 0.13789999966666666 0.9002233346666666
 Si2 Si 0.126426667 0.13789999966666666 0.7664433319999999
 Si2 Si 0.20690666633333332 0.19543333366666668
  0.9002233346666666
 Si2 Si 0.126426667 0.19543333366666668 0.9002233346666666
 Si2 Si 0.20690666633333332 0.13789999966666666
  0.7664433319999999
 Si2 Si 0.20690666633333332 0.13789999966666666
  0.9002233346666666
 Si2 Si 0.126426667 0.19543333366666668 0.7664433319999999
 Si3 Si 0.06314999866666667 0.10192666466666667
  0.6666666666666666
 Si3 Si 0.06314999866666667 0.10192666466666667 1.0
 Si3 Si 0.27018333466666666 0.23140666866666668
  0.6666666666666666
 Si3 Si 0.27018333466666666 0.23140666866666668 1.0
 Si3 Si 0.27018333466666666 0.10192666466666667
  0.6666666666666666
 Si3 Si 0.27018333466666666 0.10192666466666667 1.0
 Si3 Si 0.06314999866666667 0.23140666866666668
  0.6666666666666666
 Si3 Si 0.06314999866666667 0.23140666866666668 1.0
 Si3 Si 0.22981666533333334 0.26859333133333335
  0.6666666666666666
 Si3 Si 0.22981666533333334 0.26859333133333335 1.0
 Si3 Si 0.10351666799999999 0.064740002 0.6666666666666666
 Si3 Si 0.10351666799999999 0.064740002 1.0
 Si3 Si 0.10351666799999999 0.26859333133333335
  0.6666666666666666
 Si3 Si 0.10351666799999999 0.26859333133333335 1.0
 Si3 Si 0.22981666533333334 0.064740002 0.6666666666666666
 Si3 Si 0.22981666533333334 0.064740002 1.0
 Si4 Si 0.023806666333333334 0.06405999766666666
  0.6666666666666666
 Si4 Si 0.023806666333333334 0.06405999766666666 1.0
 Si4 Si 0.30952666700000003 0.26927333566666667
  0.6666666666666666
 Si4 Si 0.30952666700000003 0.26927333566666667 1.0
 Si4 Si 0.30952666700000003 0.06405999766666666
  0.6666666666666666
 Si4 Si 0.30952666700000003 0.06405999766666666 1.0
 Si4 Si 0.023806666333333334 0.26927333566666667
  0.6666666666666666
 Si4 Si 0.023806666333333334 0.26927333566666667 1.0
 Si4 Si 0.190473333 0.23072666433333333 0.6666666666666666
 Si4 Si 0.190473333 0.23072666433333333 1.0
 Si4 Si 0.14286000033333332 0.102606669 0.6666666666666666
 Si4 Si 0.14286000033333332 0.102606669 1.0
 Si4 Si 0.14286000033333332 0.23072666433333333
  0.6666666666666666
 Si4 Si 0.14286000033333332 0.23072666433333333 1.0
 Si4 Si 0.190473333 0.102606669 0.6666666666666666
 Si4 Si 0.190473333 0.102606669 1.0
 O1 O 0.06493666766666667 0.03671333433333333
  0.7625466683333333
 O1 O 0.2683966656666667 0.29661999899999997
  0.9041199983333332
 O1 O 0.2683966656666667 0.29661999899999997
  0.7625466683333333
 O1 O 0.06493666766666667 0.03671333433333333
  0.9041199983333332
 O1 O 0.2683966656666667 0.03671333433333333
  0.9041199983333332
 O1 O 0.06493666766666667 0.29661999899999997
  0.7625466683333333
 O1 O 0.06493666766666667 0.29661999899999997
  0.9041199983333332
 O1 O 0.2683966656666667 0.03671333433333333
  0.7625466683333333
 O1 O 0.23160333433333333 0.203380001 0.7625466683333333
 O1 O 0.101729999 0.12995333233333334 0.9041199983333332
 O1 O 0.101729999 0.12995333233333334 0.7625466683333333
 O1 O 0.23160333433333333 0.203380001 0.9041199983333332
 O1 O 0.101729999 0.203380001 0.9041199983333332
 O1 O 0.23160333433333333 0.12995333233333334
  0.7625466683333333
 O1 O 0.23160333433333333 0.12995333233333334
  0.9041199983333332
 O1 O 0.101729999 0.203380001 0.7625466683333333
 O2 O 0.10317666333333332 0.047153333666666665
  0.7243033349999999
 O2 O 0.23015666999999998 0.2861799996666667
  0.9423633316666666
 O2 O 0.23015666999999998 0.2861799996666667
  0.7243033349999999
 O2 O 0.10317666333333332 0.047153333666666665
  0.9423633316666666
 O2 O 0.23015666999999998 0.047153333666666665
  0.9423633316666666
 O2 O 0.10317666333333332 0.2861799996666667
  0.7243033349999999
 O2 O 0.10317666333333332 0.2861799996666667
  0.9423633316666666
 O2 O 0.23015666999999998 0.047153333666666665
  0.7243033349999999
 O2 O 0.26984333 0.21382000033333334 0.7243033349999999
 O2 O 0.06349000333333334 0.119513333 0.9423633316666666
 O2 O 0.06349000333333334 0.119513333 0.7243033349999999
 O2 O 0.26984333 0.21382000033333334 0.9423633316666666
 O2 O 0.06349000333333334 0.21382000033333334
  0.9423633316666666
 O2 O 0.26984333 0.119513333 0.7243033349999999
 O2 O 0.26984333 0.119513333 0.9423633316666666
 O2 O 0.06349000333333334 0.21382000033333334
  0.7243033349999999
 O3 O 0.092443337 0.0 0.7458233336666666
 O3 O 0.092443337 0.3333333333333333 0.7458233336666666
 O3 O 0.24088999633333333 0.0 0.9208433329999999
 O3 O 0.24088999633333333 0.3333333333333333
  0.9208433329999999
 O3 O 0.24088999633333333 0.0 0.7458233336666666
 O3 O 0.24088999633333333 0.3333333333333333
  0.7458233336666666
 O3 O 0.092443337 0.0 0.9208433329999999
 O3 O 0.092443337 0.3333333333333333 0.9208433329999999
 O3 O 0.25911000366666664 0.16666666666666666
  0.7458233336666666
 O3 O 0.07422332966666667 0.16666666666666666
  0.9208433329999999
 O3 O 0.07422332966666667 0.16666666666666666
  0.7458233336666666
 O3 O 0.25911000366666664 0.16666666666666666
  0.9208433329999999
 O4 O 0.09764666366666667 0.03172666566666667
  0.8333333333333333
 O4 O 0.23568666966666665 0.30160666766666666
  0.8333333333333333
 O4 O 0.23568666966666665 0.03172666566666667
  0.8333333333333333
 O4 O 0.09764666366666667 0.30160666766666666
  0.8333333333333333
 O4 O 0.2643133303333333 0.19839333233333334
  0.8333333333333333
 O4 O 0.069020003 0.134940001 0.8333333333333333
 O4 O 0.069020003 0.19839333233333334 0.8333333333333333
 O4 O 0.2643133303333333 0.134940001 0.8333333333333333
 O5 O 0.03753 0.0 0.7454266646666666
 O5 O 0.03753 0.3333333333333333 0.7454266646666666
 O5 O 0.29580333333333336 0.0 0.921240002
 O5 O 0.29580333333333336 0.3333333333333333 0.921240002
 O5 O 0.29580333333333336 0.0 0.7454266646666666
 O5 O 0.29580333333333336 0.3333333333333333
  0.7454266646666666
 O5 O 0.03753 0.0 0.921240002
 O5 O 0.03753 0.3333333333333333 0.921240002
 O5 O 0.20419666666666667 0.16666666666666666
  0.7454266646666666
 O5 O 0.12913666666666665 0.16666666666666666 0.921240002
 O5 O 0.12913666666666665 0.16666666666666666
  0.7454266646666666
 O5 O 0.20419666666666667 0.16666666666666666 0.921240002
 O6 O 0.03221333266666667 0.031499999333333334
  0.8333333333333333
 O6 O 0.30112000066666667 0.301833334 0.8333333333333333
 O6 O 0.30112000066666667 0.031499999333333334
  0.8333333333333333
 O6 O 0.03221333266666667 0.301833334 0.8333333333333333
 O6 O 0.19887999933333333 0.198166666 0.8333333333333333
 O6 O 0.134453334 0.13516666733333335 0.8333333333333333
 O6 O 0.134453334 0.198166666 0.8333333333333333
 O6 O 0.19887999933333333 0.13516666733333335
  0.8333333333333333
 O7 O 0.02645999933333333 0.04690666499999999 0.724486669
 O7 O 0.306873334 0.28642666833333336 0.9421799976666667
 O7 O 0.306873334 0.28642666833333336 0.724486669
 O7 O 0.02645999933333333 0.04690666499999999
  0.9421799976666667
 O7 O 0.306873334 0.04690666499999999 0.9421799976666667
 O7 O 0.02645999933333333 0.28642666833333336 0.724486669
 O7 O 0.02645999933333333 0.28642666833333336
  0.9421799976666667
 O7 O 0.306873334 0.04690666499999999 0.724486669
 O7 O 0.19312666599999997 0.21357333166666667 0.724486669
 O7 O 0.14020666733333334 0.11976000166666667
  0.9421799976666667
 O7 O 0.14020666733333334 0.11976000166666667 0.724486669
 O7 O 0.19312666599999997 0.21357333166666667
  0.9421799976666667
 O7 O 0.14020666733333334 0.21357333166666667
  0.9421799976666667
 O7 O 0.19312666599999997 0.11976000166666667 0.724486669
 O7 O 0.19312666599999997 0.11976000166666667
  0.9421799976666667
 O7 O 0.14020666733333334 0.21357333166666667 0.724486669
 O8 O 0.08333333333333333 0.08333333333333333
  0.6666666666666666
 O8 O 0.08333333333333333 0.08333333333333333 1.0
 O8 O 0.25 0.25 0.6666666666666666
 O8 O 0.25 0.25 1.0
 O8 O 0.25 0.08333333333333333 0.6666666666666666
 O8 O 0.25 0.08333333333333333 1.0
 O8 O 0.08333333333333333 0.25 0.6666666666666666
 O8 O 0.08333333333333333 0.25 1.0
 O9 O 0.04121666633333333 0.086256663 0.6666666666666666
 O9 O 0.04121666633333333 0.086256663 1.0
 O9 O 0.292116667 0.24707667033333333 0.6666666666666666
 O9 O 0.292116667 0.24707667033333333 1.0
 O9 O 0.292116667 0.086256663 0.6666666666666666
 O9 O 0.292116667 0.086256663 1.0
 O9 O 0.04121666633333333 0.24707667033333333
  0.6666666666666666
 O9 O 0.04121666633333333 0.24707667033333333 1.0
 O9 O 0.20788333299999998 0.2529233296666667
  0.6666666666666666
 O9 O 0.20788333299999998 0.2529233296666667 1.0
 O9 O 0.12545000033333334 0.08041000366666666
  0.6666666666666666
 O9 O 0.12545000033333334 0.08041000366666666 1.0
 O9 O 0.12545000033333334 0.2529233296666667
  0.6666666666666666
 O9 O 0.12545000033333334 0.2529233296666667 1.0
 O9 O 0.20788333299999998 0.08041000366666666
  0.6666666666666666
 O9 O 0.20788333299999998 0.08041000366666666 1.0
 O10 O 0.0 0.07543333366666667 0.6666666666666666
 O10 O 0.0 0.07543333366666667 1.0
 O10 O 0.3333333333333333 0.07543333366666667
  0.6666666666666666
 O10 O 0.3333333333333333 0.07543333366666667 1.0
 O10 O 0.0 0.25789999966666666 0.6666666666666666
 O10 O 0.0 0.25789999966666666 1.0
 O10 O 0.3333333333333333 0.25789999966666666
  0.6666666666666666
 O10 O 0.3333333333333333 0.25789999966666666 1.0
 O10 O 0.16666666666666666 0.24210000033333334
  0.6666666666666666
 O10 O 0.16666666666666666 0.24210000033333334 1.0
 O10 O 0.16666666666666666 0.09123333300000001
  0.6666666666666666
 O10 O 0.16666666666666666 0.09123333300000001 1.0
 O2 O 0.06349000333333334 0.119513333 0.6090299983333334
 O2 O 0.06349000333333334 0.119513333 1.0576366683333334
 O2 O 0.26984333 0.21382000033333334 0.6090299983333334
 O2 O 0.26984333 0.21382000033333334 1.0576366683333334
 O2 O 0.26984333 0.119513333 0.6090299983333334
 O2 O 0.26984333 0.119513333 1.0576366683333334
 O2 O 0.06349000333333334 0.21382000033333334
  0.6090299983333334
 O2 O 0.06349000333333334 0.21382000033333334
  1.0576366683333334
 O2 O 0.23015666999999998 0.2861799996666667
  0.6090299983333334
 O2 O 0.23015666999999998 0.2861799996666667
  1.0576366683333334
 O2 O 0.10317666333333332 0.047153333666666665
  0.6090299983333334
 O2 O 0.10317666333333332 0.047153333666666665
  1.0576366683333334
 O2 O 0.10317666333333332 0.2861799996666667
  0.6090299983333334
 O2 O 0.10317666333333332 0.2861799996666667
  1.0576366683333334
 O2 O 0.23015666999999998 0.047153333666666665
  0.6090299983333334
 O2 O 0.23015666999999998 0.047153333666666665
  1.0576366683333334
 O7 O 0.02645999933333333 0.04690666499999999
  0.6088466643333332
 O7 O 0.02645999933333333 0.04690666499999999
  1.0578200023333333
 O7 O 0.306873334 0.28642666833333336 0.6088466643333332
 O7 O 0.306873334 0.28642666833333336 1.0578200023333333
 O7 O 0.306873334 0.04690666499999999 0.6088466643333332
 O7 O 0.306873334 0.04690666499999999 1.0578200023333333
 O7 O 0.02645999933333333 0.28642666833333336
  0.6088466643333332
 O7 O 0.02645999933333333 0.28642666833333336
  1.0578200023333333
 O7 O 0.19312666599999997 0.21357333166666667
  0.6088466643333332
 O7 O 0.19312666599999997 0.21357333166666667
  1.0578200023333333
 O7 O 0.14020666733333334 0.11976000166666667
  0.6088466643333332
 O7 O 0.14020666733333334 0.11976000166666667
  1.0578200023333333
 O7 O 0.14020666733333334 0.21357333166666667
  0.6088466643333332
 O7 O 0.14020666733333334 0.21357333166666667
  1.0578200023333333
 O7 O 0.19312666599999997 0.11976000166666667
  0.6088466643333332
 O7 O 0.19312666599999997 0.11976000166666667
  1.0578200023333333
 Si1 Si 0.42298000066666663 0.028813332333333334
  0.7664466699999999
 Si1 Si 0.5770199993333334 0.304520001 0.9002199966666666
 Si1 Si 0.5770199993333334 0.304520001 0.7664466699999999
 Si1 Si 0.42298000066666663 0.028813332333333334
  0.9002199966666666
 Si1 Si 0.5770199993333334 0.028813332333333334
  0.9002199966666666
 Si1 Si 0.42298000066666663 0.304520001 0.7664466699999999
 Si1 Si 0.42298000066666663 0.304520001 0.9002199966666666
 Si1 Si 0.5770199993333334 0.028813332333333334
  0.7664466699999999
 Si1 Si 0.5896466673333334 0.19547999900000002
  0.7664466699999999
 Si1 Si 0.4103533326666666 0.13785333433333333
  0.9002199966666666
 Si1 Si 0.4103533326666666 0.13785333433333333
  0.7664466699999999
 Si1 Si 0.5896466673333334 0.19547999900000002
  0.9002199966666666
 Si1 Si 0.4103533326666666 0.19547999900000002
  0.9002199966666666
 Si1 Si 0.5896466673333334 0.13785333433333333
  0.7664466699999999
 Si1 Si 0.5896466673333334 0.13785333433333333
  0.9002199966666666
 Si1 Si 0.4103533326666666 0.19547999900000002
  0.7664466699999999
 Si2 Si 0.37357333299999995 0.028766667 0.7664433319999999
 Si2 Si 0.626426667 0.30456666633333335 0.9002233346666666
 Si2 Si 0.626426667 0.30456666633333335 0.7664433319999999
 Si2 Si 0.37357333299999995 0.028766667 0.9002233346666666
 Si2 Si 0.626426667 0.028766667 0.9002233346666666
 Si2 Si 0.37357333299999995 0.30456666633333335
  0.7664433319999999
 Si2 Si 0.37357333299999995 0.30456666633333335
  0.9002233346666666
 Si2 Si 0.626426667 0.028766667 0.7664433319999999
 Si2 Si 0.5402399996666667 0.19543333366666668
  0.7664433319999999
 Si2 Si 0.4597600003333333 0.13789999966666666
  0.9002233346666666
 Si2 Si 0.4597600003333333 0.13789999966666666
  0.7664433319999999
 Si2 Si 0.5402399996666667 0.19543333366666668
  0.9002233346666666
 Si2 Si 0.4597600003333333 0.19543333366666668
  0.9002233346666666
 Si2 Si 0.5402399996666667 0.13789999966666666
  0.7664433319999999
 Si2 Si 0.5402399996666667 0.13789999966666666
  0.9002233346666666
 Si2 Si 0.4597600003333333 0.19543333366666668
  0.7664433319999999
 Si3 Si 0.39648333199999997 0.10192666466666667
  0.6666666666666666
 Si3 Si 0.39648333199999997 0.10192666466666667 1.0
 Si3 Si 0.6035166679999999 0.23140666866666668
  0.6666666666666666
 Si3 Si 0.6035166679999999 0.23140666866666668 1.0
 Si3 Si 0.6035166679999999 0.10192666466666667
  0.6666666666666666
 Si3 Si 0.6035166679999999 0.10192666466666667 1.0
 Si3 Si 0.39648333199999997 0.23140666866666668
  0.6666666666666666
 Si3 Si 0.39648333199999997 0.23140666866666668 1.0
 Si3 Si 0.5631499986666666 0.26859333133333335
  0.6666666666666666
 Si3 Si 0.5631499986666666 0.26859333133333335 1.0
 Si3 Si 0.4368500013333333 0.064740002 0.6666666666666666
 Si3 Si 0.4368500013333333 0.064740002 1.0
 Si3 Si 0.4368500013333333 0.26859333133333335
  0.6666666666666666
 Si3 Si 0.4368500013333333 0.26859333133333335 1.0
 Si3 Si 0.5631499986666666 0.064740002 0.6666666666666666
 Si3 Si 0.5631499986666666 0.064740002 1.0
 Si4 Si 0.35713999966666665 0.06405999766666666
  0.6666666666666666
 Si4 Si 0.35713999966666665 0.06405999766666666 1.0
 Si4 Si 0.6428600003333333 0.26927333566666667
  0.6666666666666666
 Si4 Si 0.6428600003333333 0.26927333566666667 1.0
 Si4 Si 0.6428600003333333 0.06405999766666666
  0.6666666666666666
 Si4 Si 0.6428600003333333 0.06405999766666666 1.0
 Si4 Si 0.35713999966666665 0.26927333566666667
  0.6666666666666666
 Si4 Si 0.35713999966666665 0.26927333566666667 1.0
 Si4 Si 0.5238066663333333 0.23072666433333333
  0.6666666666666666
 Si4 Si 0.5238066663333333 0.23072666433333333 1.0
 Si4 Si 0.4761933336666666 0.102606669 0.6666666666666666
 Si4 Si 0.4761933336666666 0.102606669 1.0
 Si4 Si 0.4761933336666666 0.23072666433333333
  0.6666666666666666
 Si4 Si 0.4761933336666666 0.23072666433333333 1.0
 Si4 Si 0.5238066663333333 0.102606669 0.6666666666666666
 Si4 Si 0.5238066663333333 0.102606669 1.0
 O1 O 0.398270001 0.03671333433333333 0.7625466683333333
 O1 O 0.601729999 0.29661999899999997 0.9041199983333332
 O1 O 0.601729999 0.29661999899999997 0.7625466683333333
 O1 O 0.398270001 0.03671333433333333 0.9041199983333332
 O1 O 0.601729999 0.03671333433333333 0.9041199983333332
 O1 O 0.398270001 0.29661999899999997 0.7625466683333333
 O1 O 0.398270001 0.29661999899999997 0.9041199983333332
 O1 O 0.601729999 0.03671333433333333 0.7625466683333333
 O1 O 0.5649366676666666 0.203380001 0.7625466683333333
 O1 O 0.43506333233333333 0.12995333233333334
  0.9041199983333332
 O1 O 0.43506333233333333 0.12995333233333334
  0.7625466683333333
 O1 O 0.5649366676666666 0.203380001 0.9041199983333332
 O1 O 0.43506333233333333 0.203380001 0.9041199983333332
 O1 O 0.5649366676666666 0.12995333233333334
  0.7625466683333333
 O1 O 0.5649366676666666 0.12995333233333334
  0.9041199983333332
 O1 O 0.43506333233333333 0.203380001 0.7625466683333333
 O2 O 0.4365099966666666 0.047153333666666665
  0.7243033349999999
 O2 O 0.5634900033333333 0.2861799996666667 0.9423633316666666
 O2 O 0.5634900033333333 0.2861799996666667 0.7243033349999999
 O2 O 0.4365099966666666 0.047153333666666665
  0.9423633316666666
 O2 O 0.5634900033333333 0.047153333666666665
  0.9423633316666666
 O2 O 0.4365099966666666 0.2861799996666667 0.7243033349999999
 O2 O 0.4365099966666666 0.2861799996666667 0.9423633316666666
 O2 O 0.5634900033333333 0.047153333666666665
  0.7243033349999999
 O2 O 0.6031766633333333 0.21382000033333334
  0.7243033349999999
 O2 O 0.39682333666666664 0.119513333 0.9423633316666666
 O2 O 0.39682333666666664 0.119513333 0.7243033349999999
 O2 O 0.6031766633333333 0.21382000033333334
  0.9423633316666666
 O2 O 0.39682333666666664 0.21382000033333334
  0.9423633316666666
 O2 O 0.6031766633333333 0.119513333 0.7243033349999999
 O2 O 0.6031766633333333 0.119513333 0.9423633316666666
 O2 O 0.39682333666666664 0.21382000033333334
  0.7243033349999999
 O3 O 0.42577667033333333 0.0 0.7458233336666666
 O3 O 0.42577667033333333 0.3333333333333333
  0.7458233336666666
 O3 O 0.5742233296666667 0.0 0.9208433329999999
 O3 O 0.5742233296666667 0.3333333333333333 0.9208433329999999
 O3 O 0.5742233296666667 0.0 0.7458233336666666
 O3 O 0.5742233296666667 0.3333333333333333 0.7458233336666666
 O3 O 0.42577667033333333 0.0 0.9208433329999999
 O3 O 0.42577667033333333 0.3333333333333333
  0.9208433329999999
 O3 O 0.592443337 0.16666666666666666 0.7458233336666666
 O3 O 0.407556663 0.16666666666666666 0.9208433329999999
 O3 O 0.407556663 0.16666666666666666 0.7458233336666666
 O3 O 0.592443337 0.16666666666666666 0.9208433329999999
 O4 O 0.430979997 0.03172666566666667 0.8333333333333333
 O4 O 0.569020003 0.30160666766666666 0.8333333333333333
 O4 O 0.569020003 0.03172666566666667 0.8333333333333333
 O4 O 0.430979997 0.30160666766666666 0.8333333333333333
 O4 O 0.5976466636666666 0.19839333233333334
  0.8333333333333333
 O4 O 0.4023533363333333 0.134940001 0.8333333333333333
 O4 O 0.4023533363333333 0.19839333233333334
  0.8333333333333333
 O4 O 0.5976466636666666 0.134940001 0.8333333333333333
 O5 O 0.3708633333333333 0.0 0.7454266646666666
 O5 O 0.3708633333333333 0.3333333333333333 0.7454266646666666
 O5 O 0.6291366666666667 0.0 0.921240002
 O5 O 0.6291366666666667 0.3333333333333333 0.921240002
 O5 O 0.6291366666666667 0.0 0.7454266646666666
 O5 O 0.6291366666666667 0.3333333333333333 0.7454266646666666
 O5 O 0.3708633333333333 0.0 0.921240002
 O5 O 0.3708633333333333 0.3333333333333333 0.921240002
 O5 O 0.53753 0.16666666666666666 0.7454266646666666
 O5 O 0.46246999999999994 0.16666666666666666 0.921240002
 O5 O 0.46246999999999994 0.16666666666666666
  0.7454266646666666
 O5 O 0.53753 0.16666666666666666 0.921240002
 O6 O 0.36554666599999996 0.031499999333333334
  0.8333333333333333
 O6 O 0.634453334 0.301833334 0.8333333333333333
 O6 O 0.634453334 0.031499999333333334 0.8333333333333333
 O6 O 0.36554666599999996 0.301833334 0.8333333333333333
 O6 O 0.5322133326666667 0.198166666 0.8333333333333333
 O6 O 0.4677866673333333 0.13516666733333335
  0.8333333333333333
 O6 O 0.4677866673333333 0.198166666 0.8333333333333333
 O6 O 0.5322133326666667 0.13516666733333335
  0.8333333333333333
 O7 O 0.35979333266666663 0.04690666499999999 0.724486669
 O7 O 0.6402066673333333 0.28642666833333336
  0.9421799976666667
 O7 O 0.6402066673333333 0.28642666833333336 0.724486669
 O7 O 0.35979333266666663 0.04690666499999999
  0.9421799976666667
 O7 O 0.6402066673333333 0.04690666499999999
  0.9421799976666667
 O7 O 0.35979333266666663 0.28642666833333336 0.724486669
 O7 O 0.35979333266666663 0.28642666833333336
  0.9421799976666667
 O7 O 0.6402066673333333 0.04690666499999999 0.724486669
 O7 O 0.5264599993333333 0.21357333166666667 0.724486669
 O7 O 0.4735400006666667 0.11976000166666667
  0.9421799976666667
 O7 O 0.4735400006666667 0.11976000166666667 0.724486669
 O7 O 0.5264599993333333 0.21357333166666667
  0.9421799976666667
 O7 O 0.4735400006666667 0.21357333166666667
  0.9421799976666667
 O7 O 0.5264599993333333 0.11976000166666667 0.724486669
 O7 O 0.5264599993333333 0.11976000166666667
  0.9421799976666667
 O7 O 0.4735400006666667 0.21357333166666667 0.724486669
 O8 O 0.41666666666666663 0.08333333333333333
  0.6666666666666666
 O8 O 0.41666666666666663 0.08333333333333333 1.0
 O8 O 0.5833333333333333 0.25 0.6666666666666666
 O8 O 0.5833333333333333 0.25 1.0
 O8 O 0.5833333333333333 0.08333333333333333
  0.6666666666666666
 O8 O 0.5833333333333333 0.08333333333333333 1.0
 O8 O 0.41666666666666663 0.25 0.6666666666666666
 O8 O 0.41666666666666663 0.25 1.0
 O9 O 0.37454999966666663 0.086256663 0.6666666666666666
 O9 O 0.37454999966666663 0.086256663 1.0
 O9 O 0.6254500003333333 0.24707667033333333
  0.6666666666666666
 O9 O 0.6254500003333333 0.24707667033333333 1.0
 O9 O 0.6254500003333333 0.086256663 0.6666666666666666
 O9 O 0.6254500003333333 0.086256663 1.0
 O9 O 0.37454999966666663 0.24707667033333333
  0.6666666666666666
 O9 O 0.37454999966666663 0.24707667033333333 1.0
 O9 O 0.5412166663333333 0.2529233296666667 0.6666666666666666
 O9 O 0.5412166663333333 0.2529233296666667 1.0
 O9 O 0.4587833336666667 0.08041000366666666
  0.6666666666666666
 O9 O 0.4587833336666667 0.08041000366666666 1.0
 O9 O 0.4587833336666667 0.2529233296666667 0.6666666666666666
 O9 O 0.4587833336666667 0.2529233296666667 1.0
 O9 O 0.5412166663333333 0.08041000366666666
  0.6666666666666666
 O9 O 0.5412166663333333 0.08041000366666666 1.0
 O10 O 0.3333333333333333 0.07543333366666667
  0.6666666666666666
 O10 O 0.3333333333333333 0.07543333366666667 1.0
 O10 O 0.6666666666666666 0.07543333366666667
  0.6666666666666666
 O10 O 0.6666666666666666 0.07543333366666667 1.0
 O10 O 0.3333333333333333 0.25789999966666666
  0.6666666666666666
 O10 O 0.3333333333333333 0.25789999966666666 1.0
 O10 O 0.6666666666666666 0.25789999966666666
  0.6666666666666666
 O10 O 0.6666666666666666 0.25789999966666666 1.0
 O10 O 0.5 0.24210000033333334 0.6666666666666666
 O10 O 0.5 0.24210000033333334 1.0
 O10 O 0.5 0.09123333300000001 0.6666666666666666
 O10 O 0.5 0.09123333300000001 1.0
 O2 O 0.39682333666666664 0.119513333 0.6090299983333334
 O2 O 0.39682333666666664 0.119513333 1.0576366683333334
 O2 O 0.6031766633333333 0.21382000033333334
  0.6090299983333334
 O2 O 0.6031766633333333 0.21382000033333334
  1.0576366683333334
 O2 O 0.6031766633333333 0.119513333 0.6090299983333334
 O2 O 0.6031766633333333 0.119513333 1.0576366683333334
 O2 O 0.39682333666666664 0.21382000033333334
  0.6090299983333334
 O2 O 0.39682333666666664 0.21382000033333334
  1.0576366683333334
 O2 O 0.5634900033333333 0.2861799996666667 0.6090299983333334
 O2 O 0.5634900033333333 0.2861799996666667 1.0576366683333334
 O2 O 0.4365099966666666 0.047153333666666665
  0.6090299983333334
 O2 O 0.4365099966666666 0.047153333666666665
  1.0576366683333334
 O2 O 0.4365099966666666 0.2861799996666667 0.6090299983333334
 O2 O 0.4365099966666666 0.2861799996666667 1.0576366683333334
 O2 O 0.5634900033333333 0.047153333666666665
  0.6090299983333334
 O2 O 0.5634900033333333 0.047153333666666665
  1.0576366683333334
 O7 O 0.35979333266666663 0.04690666499999999
  0.6088466643333332
 O7 O 0.35979333266666663 0.04690666499999999
  1.0578200023333333
 O7 O 0.6402066673333333 0.28642666833333336
  0.6088466643333332
 O7 O 0.6402066673333333 0.28642666833333336
  1.0578200023333333
 O7 O 0.6402066673333333 0.04690666499999999
  0.6088466643333332
 O7 O 0.6402066673333333 0.04690666499999999
  1.0578200023333333
 O7 O 0.35979333266666663 0.28642666833333336
  0.6088466643333332
 O7 O 0.35979333266666663 0.28642666833333336
  1.0578200023333333
 O7 O 0.5264599993333333 0.21357333166666667
  0.6088466643333332
 O7 O 0.5264599993333333 0.21357333166666667
  1.0578200023333333
 O7 O 0.4735400006666667 0.11976000166666667
  0.6088466643333332
 O7 O 0.4735400006666667 0.11976000166666667
  1.0578200023333333
 O7 O 0.4735400006666667 0.21357333166666667
  0.6088466643333332
 O7 O 0.4735400006666667 0.21357333166666667
  1.0578200023333333
 O7 O 0.5264599993333333 0.11976000166666667
  0.6088466643333332
 O7 O 0.5264599993333333 0.11976000166666667
  1.0578200023333333
 Si1 Si 0.7563133339999999 0.028813332333333334
  0.7664466699999999
 Si1 Si 0.9103533326666666 0.304520001 0.9002199966666666
 Si1 Si 0.9103533326666666 0.304520001 0.7664466699999999
 Si1 Si 0.7563133339999999 0.028813332333333334
  0.9002199966666666
 Si1 Si 0.9103533326666666 0.028813332333333334
  0.9002199966666666
 Si1 Si 0.7563133339999999 0.304520001 0.7664466699999999
 Si1 Si 0.7563133339999999 0.304520001 0.9002199966666666
 Si1 Si 0.9103533326666666 0.028813332333333334
  0.7664466699999999
 Si1 Si 0.9229800006666666 0.19547999900000002
  0.7664466699999999
 Si1 Si 0.7436866659999999 0.13785333433333333
  0.9002199966666666
 Si1 Si 0.7436866659999999 0.13785333433333333
  0.7664466699999999
 Si1 Si 0.9229800006666666 0.19547999900000002
  0.9002199966666666
 Si1 Si 0.7436866659999999 0.19547999900000002
  0.9002199966666666
 Si1 Si 0.9229800006666666 0.13785333433333333
  0.7664466699999999
 Si1 Si 0.9229800006666666 0.13785333433333333
  0.9002199966666666
 Si1 Si 0.7436866659999999 0.19547999900000002
  0.7664466699999999
 Si2 Si 0.7069066663333332 0.028766667 0.7664433319999999
 Si2 Si 0.9597600003333333 0.30456666633333335
  0.9002233346666666
 Si2 Si 0.9597600003333333 0.30456666633333335
  0.7664433319999999
 Si2 Si 0.7069066663333332 0.028766667 0.9002233346666666
 Si2 Si 0.9597600003333333 0.028766667 0.9002233346666666
 Si2 Si 0.7069066663333332 0.30456666633333335
  0.7664433319999999
 Si2 Si 0.7069066663333332 0.30456666633333335
  0.9002233346666666
 Si2 Si 0.9597600003333333 0.028766667 0.7664433319999999
 Si2 Si 0.873573333 0.19543333366666668 0.7664433319999999
 Si2 Si 0.7930933336666666 0.13789999966666666
  0.9002233346666666
 Si2 Si 0.7930933336666666 0.13789999966666666
  0.7664433319999999
 Si2 Si 0.873573333 0.19543333366666668 0.9002233346666666
 Si2 Si 0.7930933336666666 0.19543333366666668
  0.9002233346666666
 Si2 Si 0.873573333 0.13789999966666666 0.7664433319999999
 Si2 Si 0.873573333 0.13789999966666666 0.9002233346666666
 Si2 Si 0.7930933336666666 0.19543333366666668
  0.7664433319999999
 Si3 Si 0.7298166653333333 0.10192666466666667
  0.6666666666666666
 Si3 Si 0.7298166653333333 0.10192666466666667 1.0
 Si3 Si 0.9368500013333332 0.23140666866666668
  0.6666666666666666
 Si3 Si 0.9368500013333332 0.23140666866666668 1.0
 Si3 Si 0.9368500013333332 0.10192666466666667
  0.6666666666666666
 Si3 Si 0.9368500013333332 0.10192666466666667 1.0
 Si3 Si 0.7298166653333333 0.23140666866666668
  0.6666666666666666
 Si3 Si 0.7298166653333333 0.23140666866666668 1.0
 Si3 Si 0.8964833319999999 0.26859333133333335
  0.6666666666666666
 Si3 Si 0.8964833319999999 0.26859333133333335 1.0
 Si3 Si 0.7701833346666667 0.064740002 0.6666666666666666
 Si3 Si 0.7701833346666667 0.064740002 1.0
 Si3 Si 0.7701833346666667 0.26859333133333335
  0.6666666666666666
 Si3 Si 0.7701833346666667 0.26859333133333335 1.0
 Si3 Si 0.8964833319999999 0.064740002 0.6666666666666666
 Si3 Si 0.8964833319999999 0.064740002 1.0
 Si4 Si 0.6904733329999999 0.06405999766666666
  0.6666666666666666
 Si4 Si 0.6904733329999999 0.06405999766666666 1.0
 Si4 Si 0.9761933336666666 0.26927333566666667
  0.6666666666666666
 Si4 Si 0.9761933336666666 0.26927333566666667 1.0
 Si4 Si 0.9761933336666666 0.06405999766666666
  0.6666666666666666
 Si4 Si 0.9761933336666666 0.06405999766666666 1.0
 Si4 Si 0.6904733329999999 0.26927333566666667
  0.6666666666666666
 Si4 Si 0.6904733329999999 0.26927333566666667 1.0
 Si4 Si 0.8571399996666667 0.23072666433333333
  0.6666666666666666
 Si4 Si 0.8571399996666667 0.23072666433333333 1.0
 Si4 Si 0.8095266669999999 0.102606669 0.6666666666666666
 Si4 Si 0.8095266669999999 0.102606669 1.0
 Si4 Si 0.8095266669999999 0.23072666433333333
  0.6666666666666666
 Si4 Si 0.8095266669999999 0.23072666433333333 1.0
 Si4 Si 0.8571399996666667 0.102606669 0.6666666666666666
 Si4 Si 0.8571399996666667 0.102606669 1.0
 O1 O 0.7316033343333332 0.03671333433333333
  0.7625466683333333
 O1 O 0.9350633323333333 0.29661999899999997
  0.9041199983333332
 O1 O 0.9350633323333333 0.29661999899999997
  0.7625466683333333
 O1 O 0.7316033343333332 0.03671333433333333
  0.9041199983333332
 O1 O 0.9350633323333333 0.03671333433333333
  0.9041199983333332
 O1 O 0.7316033343333332 0.29661999899999997
  0.7625466683333333
 O1 O 0.7316033343333332 0.29661999899999997
  0.9041199983333332
 O1 O 0.9350633323333333 0.03671333433333333
  0.7625466683333333
 O1 O 0.898270001 0.203380001 0.7625466683333333
 O1 O 0.7683966656666666 0.12995333233333334
  0.9041199983333332
 O1 O 0.7683966656666666 0.12995333233333334
  0.7625466683333333
 O1 O 0.898270001 0.203380001 0.9041199983333332
 O1 O 0.7683966656666666 0.203380001 0.9041199983333332
 O1 O 0.898270001 0.12995333233333334 0.7625466683333333
 O1 O 0.898270001 0.12995333233333334 0.9041199983333332
 O1 O 0.7683966656666666 0.203380001 0.7625466683333333
 O2 O 0.7698433299999999 0.047153333666666665
  0.7243033349999999
 O2 O 0.8968233366666667 0.2861799996666667 0.9423633316666666
 O2 O 0.8968233366666667 0.2861799996666667 0.7243033349999999
 O2 O 0.7698433299999999 0.047153333666666665
  0.9423633316666666
 O2 O 0.8968233366666667 0.047153333666666665
  0.9423633316666666
 O2 O 0.7698433299999999 0.2861799996666667 0.7243033349999999
 O2 O 0.7698433299999999 0.2861799996666667 0.9423633316666666
 O2 O 0.8968233366666667 0.047153333666666665
  0.7243033349999999
 O2 O 0.9365099966666666 0.21382000033333334
  0.7243033349999999
 O2 O 0.73015667 0.119513333 0.9423633316666666
 O2 O 0.73015667 0.119513333 0.7243033349999999
 O2 O 0.9365099966666666 0.21382000033333334
  0.9423633316666666
 O2 O 0.73015667 0.21382000033333334 0.9423633316666666
 O2 O 0.9365099966666666 0.119513333 0.7243033349999999
 O2 O 0.9365099966666666 0.119513333 0.9423633316666666
 O2 O 0.73015667 0.21382000033333334 0.7243033349999999
 O3 O 0.7591100036666667 0.0 0.7458233336666666
 O3 O 0.7591100036666667 0.3333333333333333 0.7458233336666666
 O3 O 0.907556663 0.0 0.9208433329999999
 O3 O 0.907556663 0.3333333333333333 0.9208433329999999
 O3 O 0.907556663 0.0 0.7458233336666666
 O3 O 0.907556663 0.3333333333333333 0.7458233336666666
 O3 O 0.7591100036666667 0.0 0.9208433329999999
 O3 O 0.7591100036666667 0.3333333333333333 0.9208433329999999
 O3 O 0.9257766703333332 0.16666666666666666
  0.7458233336666666
 O3 O 0.7408899963333333 0.16666666666666666
  0.9208433329999999
 O3 O 0.7408899963333333 0.16666666666666666
  0.7458233336666666
 O3 O 0.9257766703333332 0.16666666666666666
  0.9208433329999999
 O4 O 0.7643133303333334 0.03172666566666667
  0.8333333333333333
 O4 O 0.9023533363333334 0.30160666766666666
  0.8333333333333333
 O4 O 0.9023533363333334 0.03172666566666667
  0.8333333333333333
 O4 O 0.7643133303333334 0.30160666766666666
  0.8333333333333333
 O4 O 0.9309799969999999 0.19839333233333334
  0.8333333333333333
 O4 O 0.7356866696666666 0.134940001 0.8333333333333333
 O4 O 0.7356866696666666 0.19839333233333334
  0.8333333333333333
 O4 O 0.9309799969999999 0.134940001 0.8333333333333333
 O5 O 0.7041966666666666 0.0 0.7454266646666666
 O5 O 0.7041966666666666 0.3333333333333333 0.7454266646666666
 O5 O 0.9624699999999999 0.0 0.921240002
 O5 O 0.9624699999999999 0.3333333333333333 0.921240002
 O5 O 0.9624699999999999 0.0 0.7454266646666666
 O5 O 0.9624699999999999 0.3333333333333333 0.7454266646666666
 O5 O 0.7041966666666666 0.0 0.921240002
 O5 O 0.7041966666666666 0.3333333333333333 0.921240002
 O5 O 0.8708633333333333 0.16666666666666666
  0.7454266646666666
 O5 O 0.7958033333333332 0.16666666666666666 0.921240002
 O5 O 0.7958033333333332 0.16666666666666666
  0.7454266646666666
 O5 O 0.8708633333333333 0.16666666666666666 0.921240002
 O6 O 0.6988799993333332 0.031499999333333334
  0.8333333333333333
 O6 O 0.9677866673333333 0.301833334 0.8333333333333333
 O6 O 0.9677866673333333 0.031499999333333334
  0.8333333333333333
 O6 O 0.6988799993333332 0.301833334 0.8333333333333333
 O6 O 0.865546666 0.198166666 0.8333333333333333
 O6 O 0.8011200006666666 0.13516666733333335
  0.8333333333333333
 O6 O 0.8011200006666666 0.198166666 0.8333333333333333
 O6 O 0.865546666 0.13516666733333335 0.8333333333333333
 O7 O 0.693126666 0.04690666499999999 0.724486669
 O7 O 0.9735400006666666 0.28642666833333336
  0.9421799976666667
 O7 O 0.9735400006666666 0.28642666833333336 0.724486669
 O7 O 0.693126666 0.04690666499999999 0.9421799976666667
 O7 O 0.9735400006666666 0.04690666499999999
  0.9421799976666667
 O7 O 0.693126666 0.28642666833333336 0.724486669
 O7 O 0.693126666 0.28642666833333336 0.9421799976666667
 O7 O 0.9735400006666666 0.04690666499999999 0.724486669
 O7 O 0.8597933326666667 0.21357333166666667 0.724486669
 O7 O 0.806873334 0.11976000166666667 0.9421799976666667
 O7 O 0.806873334 0.11976000166666667 0.724486669
 O7 O 0.8597933326666667 0.21357333166666667
  0.9421799976666667
 O7 O 0.806873334 0.21357333166666667 0.9421799976666667
 O7 O 0.8597933326666667 0.11976000166666667 0.724486669
 O7 O 0.8597933326666667 0.11976000166666667
  0.9421799976666667
 O7 O 0.806873334 0.21357333166666667 0.724486669
 O8 O 0.75 0.08333333333333333 0.6666666666666666
 O8 O 0.75 0.08333333333333333 1.0
 O8 O 0.9166666666666665 0.25 0.6666666666666666
 O8 O 0.9166666666666665 0.25 1.0
 O8 O 0.9166666666666665 0.08333333333333333
  0.6666666666666666
 O8 O 0.9166666666666665 0.08333333333333333 1.0
 O8 O 0.75 0.25 0.6666666666666666
 O8 O 0.75 0.25 1.0
 O9 O 0.707883333 0.086256663 0.6666666666666666
 O9 O 0.707883333 0.086256663 1.0
 O9 O 0.9587833336666667 0.24707667033333333
  0.6666666666666666
 O9 O 0.9587833336666667 0.24707667033333333 1.0
 O9 O 0.9587833336666667 0.086256663 0.6666666666666666
 O9 O 0.9587833336666667 0.086256663 1.0
 O9 O 0.707883333 0.24707667033333333 0.6666666666666666
 O9 O 0.707883333 0.24707667033333333 1.0
 O9 O 0.8745499996666666 0.2529233296666667 0.6666666666666666
 O9 O 0.8745499996666666 0.2529233296666667 1.0
 O9 O 0.7921166669999999 0.08041000366666666
  0.6666666666666666
 O9 O 0.7921166669999999 0.08041000366666666 1.0
 O9 O 0.7921166669999999 0.2529233296666667 0.6666666666666666
 O9 O 0.7921166669999999 0.2529233296666667 1.0
 O9 O 0.8745499996666666 0.08041000366666666
  0.6666666666666666
 O9 O 0.8745499996666666 0.08041000366666666 1.0
 O10 O 0.6666666666666666 0.07543333366666667
  0.6666666666666666
 O10 O 0.6666666666666666 0.07543333366666667 1.0
 O10 O 1.0 0.07543333366666667 0.6666666666666666
 O10 O 1.0 0.07543333366666667 1.0
 O10 O 0.6666666666666666 0.25789999966666666
  0.6666666666666666
 O10 O 0.6666666666666666 0.25789999966666666 1.0
 O10 O 1.0 0.25789999966666666 0.6666666666666666
 O10 O 1.0 0.25789999966666666 1.0
 O10 O 0.8333333333333333 0.24210000033333334
  0.6666666666666666
 O10 O 0.8333333333333333 0.24210000033333334 1.0
 O10 O 0.8333333333333333 0.09123333300000001
  0.6666666666666666
 O10 O 0.8333333333333333 0.09123333300000001 1.0
 O2 O 0.73015667 0.119513333 0.6090299983333334
 O2 O 0.73015667 0.119513333 1.0576366683333334
 O2 O 0.9365099966666666 0.21382000033333334
  0.6090299983333334
 O2 O 0.9365099966666666 0.21382000033333334
  1.0576366683333334
 O2 O 0.9365099966666666 0.119513333 0.6090299983333334
 O2 O 0.9365099966666666 0.119513333 1.0576366683333334
 O2 O 0.73015667 0.21382000033333334 0.6090299983333334
 O2 O 0.73015667 0.21382000033333334 1.0576366683333334
 O2 O 0.8968233366666667 0.2861799996666667 0.6090299983333334
 O2 O 0.8968233366666667 0.2861799996666667 1.0576366683333334
 O2 O 0.7698433299999999 0.047153333666666665
  0.6090299983333334
 O2 O 0.7698433299999999 0.047153333666666665
  1.0576366683333334
 O2 O 0.7698433299999999 0.2861799996666667 0.6090299983333334
 O2 O 0.7698433299999999 0.2861799996666667 1.0576366683333334
 O2 O 0.8968233366666667 0.047153333666666665
  0.6090299983333334
 O2 O 0.8968233366666667 0.047153333666666665
  1.0576366683333334
 O7 O 0.693126666 0.04690666499999999 0.6088466643333332
 O7 O 0.693126666 0.04690666499999999 1.0578200023333333
 O7 O 0.9735400006666666 0.28642666833333336
  0.6088466643333332
 O7 O 0.9735400006666666 0.28642666833333336
  1.0578200023333333
 O7 O 0.9735400006666666 0.04690666499999999
  0.6088466643333332
 O7 O 0.9735400006666666 0.04690666499999999
  1.0578200023333333
 O7 O 0.693126666 0.28642666833333336 0.6088466643333332
 O7 O 0.693126666 0.28642666833333336 1.0578200023333333
 O7 O 0.8597933326666667 0.21357333166666667
  0.6088466643333332
 O7 O 0.8597933326666667 0.21357333166666667
  1.0578200023333333
 O7 O 0.806873334 0.11976000166666667 0.6088466643333332
 O7 O 0.806873334 0.11976000166666667 1.0578200023333333
 O7 O 0.806873334 0.21357333166666667 0.6088466643333332
 O7 O 0.806873334 0.21357333166666667 1.0578200023333333
 O7 O 0.8597933326666667 0.11976000166666667
  0.6088466643333332
 O7 O 0.8597933326666667 0.11976000166666667
  1.0578200023333333
 Si1 Si 0.08964666733333333 0.36214666566666665
  0.7664466699999999
 Si1 Si 0.243686666 0.6378533343333332 0.9002199966666666
 Si1 Si 0.243686666 0.6378533343333332 0.7664466699999999
 Si1 Si 0.08964666733333333 0.36214666566666665
  0.9002199966666666
 Si1 Si 0.243686666 0.36214666566666665 0.9002199966666666
 Si1 Si 0.08964666733333333 0.6378533343333332
  0.7664466699999999
 Si1 Si 0.08964666733333333 0.6378533343333332
  0.9002199966666666
 Si1 Si 0.243686666 0.36214666566666665 0.7664466699999999
 Si1 Si 0.256313334 0.5288133323333333 0.7664466699999999
 Si1 Si 0.07701999933333332 0.4711866676666666
  0.9002199966666666
 Si1 Si 0.07701999933333332 0.4711866676666666
  0.7664466699999999
 Si1 Si 0.256313334 0.5288133323333333 0.9002199966666666
 Si1 Si 0.07701999933333332 0.5288133323333333
  0.9002199966666666
 Si1 Si 0.256313334 0.4711866676666666 0.7664466699999999
 Si1 Si 0.256313334 0.4711866676666666 0.9002199966666666
 Si1 Si 0.07701999933333332 0.5288133323333333
  0.7664466699999999
 Si2 Si 0.040239999666666665 0.36210000033333334
  0.7664433319999999
 Si2 Si 0.2930933336666667 0.6378999996666667
  0.9002233346666666
 Si2 Si 0.2930933336666667 0.6378999996666667
  0.7664433319999999
 Si2 Si 0.040239999666666665 0.36210000033333334
  0.9002233346666666
 Si2 Si 0.2930933336666667 0.36210000033333334
  0.9002233346666666
 Si2 Si 0.040239999666666665 0.6378999996666667
  0.7664433319999999
 Si2 Si 0.040239999666666665 0.6378999996666667
  0.9002233346666666
 Si2 Si 0.2930933336666667 0.36210000033333334
  0.7664433319999999
 Si2 Si 0.20690666633333332 0.528766667 0.7664433319999999
 Si2 Si 0.126426667 0.471233333 0.9002233346666666
 Si2 Si 0.126426667 0.471233333 0.7664433319999999
 Si2 Si 0.20690666633333332 0.528766667 0.9002233346666666
 Si2 Si 0.126426667 0.528766667 0.9002233346666666
 Si2 Si 0.20690666633333332 0.471233333 0.7664433319999999
 Si2 Si 0.20690666633333332 0.471233333 0.9002233346666666
 Si2 Si 0.126426667 0.528766667 0.7664433319999999
 Si3 Si 0.06314999866666667 0.435259998 0.6666666666666666
 Si3 Si 0.06314999866666667 0.435259998 1.0
 Si3 Si 0.27018333466666666 0.564740002 0.6666666666666666
 Si3 Si 0.27018333466666666 0.564740002 1.0
 Si3 Si 0.27018333466666666 0.435259998 0.6666666666666666
 Si3 Si 0.27018333466666666 0.435259998 1.0
 Si3 Si 0.06314999866666667 0.564740002 0.6666666666666666
 Si3 Si 0.06314999866666667 0.564740002 1.0
 Si3 Si 0.22981666533333334 0.6019266646666667
  0.6666666666666666
 Si3 Si 0.22981666533333334 0.6019266646666667 1.0
 Si3 Si 0.10351666799999999 0.39807333533333333
  0.6666666666666666
 Si3 Si 0.10351666799999999 0.39807333533333333 1.0
 Si3 Si 0.10351666799999999 0.6019266646666667
  0.6666666666666666
 Si3 Si 0.10351666799999999 0.6019266646666667 1.0
 Si3 Si 0.22981666533333334 0.39807333533333333
  0.6666666666666666
 Si3 Si 0.22981666533333334 0.39807333533333333 1.0
 Si4 Si 0.023806666333333334 0.39739333099999996
  0.6666666666666666
 Si4 Si 0.023806666333333334 0.39739333099999996 1.0
 Si4 Si 0.30952666700000003 0.602606669 0.6666666666666666
 Si4 Si 0.30952666700000003 0.602606669 1.0
 Si4 Si 0.30952666700000003 0.39739333099999996
  0.6666666666666666
 Si4 Si 0.30952666700000003 0.39739333099999996 1.0
 Si4 Si 0.023806666333333334 0.602606669 0.6666666666666666
 Si4 Si 0.023806666333333334 0.602606669 1.0
 Si4 Si 0.190473333 0.5640599976666667 0.6666666666666666
 Si4 Si 0.190473333 0.5640599976666667 1.0
 Si4 Si 0.14286000033333332 0.4359400023333333
  0.6666666666666666
 Si4 Si 0.14286000033333332 0.4359400023333333 1.0
 Si4 Si 0.14286000033333332 0.5640599976666667
  0.6666666666666666
 Si4 Si 0.14286000033333332 0.5640599976666667 1.0
 Si4 Si 0.190473333 0.4359400023333333 0.6666666666666666
 Si4 Si 0.190473333 0.4359400023333333 1.0
 O1 O 0.06493666766666667 0.37004666766666666
  0.7625466683333333
 O1 O 0.2683966656666667 0.6299533323333333 0.9041199983333332
 O1 O 0.2683966656666667 0.6299533323333333 0.7625466683333333
 O1 O 0.06493666766666667 0.37004666766666666
  0.9041199983333332
 O1 O 0.2683966656666667 0.37004666766666666
  0.9041199983333332
 O1 O 0.06493666766666667 0.6299533323333333
  0.7625466683333333
 O1 O 0.06493666766666667 0.6299533323333333
  0.9041199983333332
 O1 O 0.2683966656666667 0.37004666766666666
  0.7625466683333333
 O1 O 0.23160333433333333 0.5367133343333333
  0.7625466683333333
 O1 O 0.101729999 0.46328666566666665 0.9041199983333332
 O1 O 0.101729999 0.46328666566666665 0.7625466683333333
 O1 O 0.23160333433333333 0.5367133343333333
  0.9041199983333332
 O1 O 0.101729999 0.5367133343333333 0.9041199983333332
 O1 O 0.23160333433333333 0.46328666566666665
  0.7625466683333333
 O1 O 0.23160333433333333 0.46328666566666665
  0.9041199983333332
 O1 O 0.101729999 0.5367133343333333 0.7625466683333333
 O2 O 0.10317666333333332 0.380486667 0.7243033349999999
 O2 O 0.23015666999999998 0.619513333 0.9423633316666666
 O2 O 0.23015666999999998 0.619513333 0.7243033349999999
 O2 O 0.10317666333333332 0.380486667 0.9423633316666666
 O2 O 0.23015666999999998 0.380486667 0.9423633316666666
 O2 O 0.10317666333333332 0.619513333 0.7243033349999999
 O2 O 0.10317666333333332 0.619513333 0.9423633316666666
 O2 O 0.23015666999999998 0.380486667 0.7243033349999999
 O2 O 0.26984333 0.5471533336666666 0.7243033349999999
 O2 O 0.06349000333333334 0.4528466663333333
  0.9423633316666666
 O2 O 0.06349000333333334 0.4528466663333333
  0.7243033349999999
 O2 O 0.26984333 0.5471533336666666 0.9423633316666666
 O2 O 0.06349000333333334 0.5471533336666666
  0.9423633316666666
 O2 O 0.26984333 0.4528466663333333 0.7243033349999999
 O2 O 0.26984333 0.4528466663333333 0.9423633316666666
 O2 O 0.06349000333333334 0.5471533336666666
  0.7243033349999999
 O3 O 0.092443337 0.3333333333333333 0.7458233336666666
 O3 O 0.092443337 0.6666666666666666 0.7458233336666666
 O3 O 0.24088999633333333 0.3333333333333333
  0.9208433329999999
 O3 O 0.24088999633333333 0.6666666666666666
  0.9208433329999999
 O3 O 0.24088999633333333 0.3333333333333333
  0.7458233336666666
 O3 O 0.24088999633333333 0.6666666666666666
  0.7458233336666666
 O3 O 0.092443337 0.3333333333333333 0.9208433329999999
 O3 O 0.092443337 0.6666666666666666 0.9208433329999999
 O3 O 0.25911000366666664 0.5 0.7458233336666666
 O3 O 0.07422332966666667 0.5 0.9208433329999999
 O3 O 0.07422332966666667 0.5 0.7458233336666666
 O3 O 0.25911000366666664 0.5 0.9208433329999999
 O4 O 0.09764666366666667 0.36505999899999997
  0.8333333333333333
 O4 O 0.23568666966666665 0.6349400009999999
  0.8333333333333333
 O4 O 0.23568666966666665 0.36505999899999997
  0.8333333333333333
 O4 O 0.09764666366666667 0.6349400009999999
  0.8333333333333333
 O4 O 0.2643133303333333 0.5317266656666666 0.8333333333333333
 O4 O 0.069020003 0.4682733343333333 0.8333333333333333
 O4 O 0.069020003 0.5317266656666666 0.8333333333333333
 O4 O 0.2643133303333333 0.4682733343333333 0.8333333333333333
 O5 O 0.03753 0.3333333333333333 0.7454266646666666
 O5 O 0.03753 0.6666666666666666 0.7454266646666666
 O5 O 0.29580333333333336 0.3333333333333333 0.921240002
 O5 O 0.29580333333333336 0.6666666666666666 0.921240002
 O5 O 0.29580333333333336 0.3333333333333333
  0.7454266646666666
 O5 O 0.29580333333333336 0.6666666666666666
  0.7454266646666666
 O5 O 0.03753 0.3333333333333333 0.921240002
 O5 O 0.03753 0.6666666666666666 0.921240002
 O5 O 0.20419666666666667 0.5 0.7454266646666666
 O5 O 0.12913666666666665 0.5 0.921240002
 O5 O 0.12913666666666665 0.5 0.7454266646666666
 O5 O 0.20419666666666667 0.5 0.921240002
 O6 O 0.03221333266666667 0.3648333326666666
  0.8333333333333333
 O6 O 0.30112000066666667 0.6351666673333334
  0.8333333333333333
 O6 O 0.30112000066666667 0.3648333326666666
  0.8333333333333333
 O6 O 0.03221333266666667 0.6351666673333334
  0.8333333333333333
 O6 O 0.19887999933333333 0.5314999993333334
  0.8333333333333333
 O6 O 0.134453334 0.46850000066666664 0.8333333333333333
 O6 O 0.134453334 0.5314999993333334 0.8333333333333333
 O6 O 0.19887999933333333 0.46850000066666664
  0.8333333333333333
 O7 O 0.02645999933333333 0.38023999833333333 0.724486669
 O7 O 0.306873334 0.6197600016666667 0.9421799976666667
 O7 O 0.306873334 0.6197600016666667 0.724486669
 O7 O 0.02645999933333333 0.38023999833333333
  0.9421799976666667
 O7 O 0.306873334 0.38023999833333333 0.9421799976666667
 O7 O 0.02645999933333333 0.6197600016666667 0.724486669
 O7 O 0.02645999933333333 0.6197600016666667
  0.9421799976666667
 O7 O 0.306873334 0.38023999833333333 0.724486669
 O7 O 0.19312666599999997 0.546906665 0.724486669
 O7 O 0.14020666733333334 0.453093335 0.9421799976666667
 O7 O 0.14020666733333334 0.453093335 0.724486669
 O7 O 0.19312666599999997 0.546906665 0.9421799976666667
 O7 O 0.14020666733333334 0.546906665 0.9421799976666667
 O7 O 0.19312666599999997 0.453093335 0.724486669
 O7 O 0.19312666599999997 0.453093335 0.9421799976666667
 O7 O 0.14020666733333334 0.546906665 0.724486669
 O8 O 0.08333333333333333 0.41666666666666663
  0.6666666666666666
 O8 O 0.08333333333333333 0.41666666666666663 1.0
 O8 O 0.25 0.5833333333333333 0.6666666666666666
 O8 O 0.25 0.5833333333333333 1.0
 O8 O 0.25 0.41666666666666663 0.6666666666666666
 O8 O 0.25 0.41666666666666663 1.0
 O8 O 0.08333333333333333 0.5833333333333333
  0.6666666666666666
 O8 O 0.08333333333333333 0.5833333333333333 1.0
 O9 O 0.04121666633333333 0.4195899963333333
  0.6666666666666666
 O9 O 0.04121666633333333 0.4195899963333333 1.0
 O9 O 0.292116667 0.5804100036666666 0.6666666666666666
 O9 O 0.292116667 0.5804100036666666 1.0
 O9 O 0.292116667 0.4195899963333333 0.6666666666666666
 O9 O 0.292116667 0.4195899963333333 1.0
 O9 O 0.04121666633333333 0.5804100036666666
  0.6666666666666666
 O9 O 0.04121666633333333 0.5804100036666666 1.0
 O9 O 0.20788333299999998 0.586256663 0.6666666666666666
 O9 O 0.20788333299999998 0.586256663 1.0
 O9 O 0.12545000033333334 0.413743337 0.6666666666666666
 O9 O 0.12545000033333334 0.413743337 1.0
 O9 O 0.12545000033333334 0.586256663 0.6666666666666666
 O9 O 0.12545000033333334 0.586256663 1.0
 O9 O 0.20788333299999998 0.413743337 0.6666666666666666
 O9 O 0.20788333299999998 0.413743337 1.0
 O10 O 0.0 0.408766667 0.6666666666666666
 O10 O 0.0 0.408766667 1.0
 O10 O 0.3333333333333333 0.408766667 0.6666666666666666
 O10 O 0.3333333333333333 0.408766667 1.0
 O10 O 0.0 0.5912333329999999 0.6666666666666666
 O10 O 0.0 0.5912333329999999 1.0
 O10 O 0.3333333333333333 0.5912333329999999
  0.6666666666666666
 O10 O 0.3333333333333333 0.5912333329999999 1.0
 O10 O 0.16666666666666666 0.5754333336666666
  0.6666666666666666
 O10 O 0.16666666666666666 0.5754333336666666 1.0
 O10 O 0.16666666666666666 0.42456666633333334
  0.6666666666666666
 O10 O 0.16666666666666666 0.42456666633333334 1.0
 O2 O 0.06349000333333334 0.4528466663333333
  0.6090299983333334
 O2 O 0.06349000333333334 0.4528466663333333
  1.0576366683333334
 O2 O 0.26984333 0.5471533336666666 0.6090299983333334
 O2 O 0.26984333 0.5471533336666666 1.0576366683333334
 O2 O 0.26984333 0.4528466663333333 0.6090299983333334
 O2 O 0.26984333 0.4528466663333333 1.0576366683333334
 O2 O 0.06349000333333334 0.5471533336666666
  0.6090299983333334
 O2 O 0.06349000333333334 0.5471533336666666
  1.0576366683333334
 O2 O 0.23015666999999998 0.619513333 0.6090299983333334
 O2 O 0.23015666999999998 0.619513333 1.0576366683333334
 O2 O 0.10317666333333332 0.380486667 0.6090299983333334
 O2 O 0.10317666333333332 0.380486667 1.0576366683333334
 O2 O 0.10317666333333332 0.619513333 0.6090299983333334
 O2 O 0.10317666333333332 0.619513333 1.0576366683333334
 O2 O 0.23015666999999998 0.380486667 0.6090299983333334
 O2 O 0.23015666999999998 0.380486667 1.0576366683333334
 O7 O 0.02645999933333333 0.38023999833333333
  0.6088466643333332
 O7 O 0.02645999933333333 0.38023999833333333
  1.0578200023333333
 O7 O 0.306873334 0.6197600016666667 0.6088466643333332
 O7 O 0.306873334 0.6197600016666667 1.0578200023333333
 O7 O 0.306873334 0.38023999833333333 0.6088466643333332
 O7 O 0.306873334 0.38023999833333333 1.0578200023333333
 O7 O 0.02645999933333333 0.6197600016666667
  0.6088466643333332
 O7 O 0.02645999933333333 0.6197600016666667
  1.0578200023333333
 O7 O 0.19312666599999997 0.546906665 0.6088466643333332
 O7 O 0.19312666599999997 0.546906665 1.0578200023333333
 O7 O 0.14020666733333334 0.453093335 0.6088466643333332
 O7 O 0.14020666733333334 0.453093335 1.0578200023333333
 O7 O 0.14020666733333334 0.546906665 0.6088466643333332
 O7 O 0.14020666733333334 0.546906665 1.0578200023333333
 O7 O 0.19312666599999997 0.453093335 0.6088466643333332
 O7 O 0.19312666599999997 0.453093335 1.0578200023333333
 Si1 Si 0.42298000066666663 0.36214666566666665
  0.7664466699999999
 Si1 Si 0.5770199993333334 0.6378533343333332
  0.9002199966666666
 Si1 Si 0.5770199993333334 0.6378533343333332
  0.7664466699999999
 Si1 Si 0.42298000066666663 0.36214666566666665
  0.9002199966666666
 Si1 Si 0.5770199993333334 0.36214666566666665
  0.9002199966666666
 Si1 Si 0.42298000066666663 0.6378533343333332
  0.7664466699999999
 Si1 Si 0.42298000066666663 0.6378533343333332
  0.9002199966666666
 Si1 Si 0.5770199993333334 0.36214666566666665
  0.7664466699999999
 Si1 Si 0.5896466673333334 0.5288133323333333
  0.7664466699999999
 Si1 Si 0.4103533326666666 0.4711866676666666
  0.9002199966666666
 Si1 Si 0.4103533326666666 0.4711866676666666
  0.7664466699999999
 Si1 Si 0.5896466673333334 0.5288133323333333
  0.9002199966666666
 Si1 Si 0.4103533326666666 0.5288133323333333
  0.9002199966666666
 Si1 Si 0.5896466673333334 0.4711866676666666
  0.7664466699999999
 Si1 Si 0.5896466673333334 0.4711866676666666
  0.9002199966666666
 Si1 Si 0.4103533326666666 0.5288133323333333
  0.7664466699999999
 Si2 Si 0.37357333299999995 0.36210000033333334
  0.7664433319999999
 Si2 Si 0.626426667 0.6378999996666667 0.9002233346666666
 Si2 Si 0.626426667 0.6378999996666667 0.7664433319999999
 Si2 Si 0.37357333299999995 0.36210000033333334
  0.9002233346666666
 Si2 Si 0.626426667 0.36210000033333334 0.9002233346666666
 Si2 Si 0.37357333299999995 0.6378999996666667
  0.7664433319999999
 Si2 Si 0.37357333299999995 0.6378999996666667
  0.9002233346666666
 Si2 Si 0.626426667 0.36210000033333334 0.7664433319999999
 Si2 Si 0.5402399996666667 0.528766667 0.7664433319999999
 Si2 Si 0.4597600003333333 0.471233333 0.9002233346666666
 Si2 Si 0.4597600003333333 0.471233333 0.7664433319999999
 Si2 Si 0.5402399996666667 0.528766667 0.9002233346666666
 Si2 Si 0.4597600003333333 0.528766667 0.9002233346666666
 Si2 Si 0.5402399996666667 0.471233333 0.7664433319999999
 Si2 Si 0.5402399996666667 0.471233333 0.9002233346666666
 Si2 Si 0.4597600003333333 0.528766667 0.7664433319999999
 Si3 Si 0.39648333199999997 0.435259998 0.6666666666666666
 Si3 Si 0.39648333199999997 0.435259998 1.0
 Si3 Si 0.6035166679999999 0.564740002 0.6666666666666666
 Si3 Si 0.6035166679999999 0.564740002 1.0
 Si3 Si 0.6035166679999999 0.435259998 0.6666666666666666
 Si3 Si 0.6035166679999999 0.435259998 1.0
 Si3 Si 0.39648333199999997 0.564740002 0.6666666666666666
 Si3 Si 0.39648333199999997 0.564740002 1.0
 Si3 Si 0.5631499986666666 0.6019266646666667
  0.6666666666666666
 Si3 Si 0.5631499986666666 0.6019266646666667 1.0
 Si3 Si 0.4368500013333333 0.39807333533333333
  0.6666666666666666
 Si3 Si 0.4368500013333333 0.39807333533333333 1.0
 Si3 Si 0.4368500013333333 0.6019266646666667
  0.6666666666666666
 Si3 Si 0.4368500013333333 0.6019266646666667 1.0
 Si3 Si 0.5631499986666666 0.39807333533333333
  0.6666666666666666
 Si3 Si 0.5631499986666666 0.39807333533333333 1.0
 Si4 Si 0.35713999966666665 0.39739333099999996
  0.6666666666666666
 Si4 Si 0.35713999966666665 0.39739333099999996 1.0
 Si4 Si 0.6428600003333333 0.602606669 0.6666666666666666
 Si4 Si 0.6428600003333333 0.602606669 1.0
 Si4 Si 0.6428600003333333 0.39739333099999996
  0.6666666666666666
 Si4 Si 0.6428600003333333 0.39739333099999996 1.0
 Si4 Si 0.35713999966666665 0.602606669 0.6666666666666666
 Si4 Si 0.35713999966666665 0.602606669 1.0
 Si4 Si 0.5238066663333333 0.5640599976666667
  0.6666666666666666
 Si4 Si 0.5238066663333333 0.5640599976666667 1.0
 Si4 Si 0.4761933336666666 0.4359400023333333
  0.6666666666666666
 Si4 Si 0.4761933336666666 0.4359400023333333 1.0
 Si4 Si 0.4761933336666666 0.5640599976666667
  0.6666666666666666
 Si4 Si 0.4761933336666666 0.5640599976666667 1.0
 Si4 Si 0.5238066663333333 0.4359400023333333
  0.6666666666666666
 Si4 Si 0.5238066663333333 0.4359400023333333 1.0
 O1 O 0.398270001 0.37004666766666666 0.7625466683333333
 O1 O 0.601729999 0.6299533323333333 0.9041199983333332
 O1 O 0.601729999 0.6299533323333333 0.7625466683333333
 O1 O 0.398270001 0.37004666766666666 0.9041199983333332
 O1 O 0.601729999 0.37004666766666666 0.9041199983333332
 O1 O 0.398270001 0.6299533323333333 0.7625466683333333
 O1 O 0.398270001 0.6299533323333333 0.9041199983333332
 O1 O 0.601729999 0.37004666766666666 0.7625466683333333
 O1 O 0.5649366676666666 0.5367133343333333 0.7625466683333333
 O1 O 0.43506333233333333 0.46328666566666665
  0.9041199983333332
 O1 O 0.43506333233333333 0.46328666566666665
  0.7625466683333333
 O1 O 0.5649366676666666 0.5367133343333333 0.9041199983333332
 O1 O 0.43506333233333333 0.5367133343333333
  0.9041199983333332
 O1 O 0.5649366676666666 0.46328666566666665
  0.7625466683333333
 O1 O 0.5649366676666666 0.46328666566666665
  0.9041199983333332
 O1 O 0.43506333233333333 0.5367133343333333
  0.7625466683333333
 O2 O 0.4365099966666666 0.380486667 0.7243033349999999
 O2 O 0.5634900033333333 0.619513333 0.9423633316666666
 O2 O 0.5634900033333333 0.619513333 0.7243033349999999
 O2 O 0.4365099966666666 0.380486667 0.9423633316666666
 O2 O 0.5634900033333333 0.380486667 0.9423633316666666
 O2 O 0.4365099966666666 0.619513333 0.7243033349999999
 O2 O 0.4365099966666666 0.619513333 0.9423633316666666
 O2 O 0.5634900033333333 0.380486667 0.7243033349999999
 O2 O 0.6031766633333333 0.5471533336666666 0.7243033349999999
 O2 O 0.39682333666666664 0.4528466663333333
  0.9423633316666666
 O2 O 0.39682333666666664 0.4528466663333333
  0.7243033349999999
 O2 O 0.6031766633333333 0.5471533336666666 0.9423633316666666
 O2 O 0.39682333666666664 0.5471533336666666
  0.9423633316666666
 O2 O 0.6031766633333333 0.4528466663333333 0.7243033349999999
 O2 O 0.6031766633333333 0.4528466663333333 0.9423633316666666
 O2 O 0.39682333666666664 0.5471533336666666
  0.7243033349999999
 O3 O 0.42577667033333333 0.3333333333333333
  0.7458233336666666
 O3 O 0.42577667033333333 0.6666666666666666
  0.7458233336666666
 O3 O 0.5742233296666667 0.3333333333333333 0.9208433329999999
 O3 O 0.5742233296666667 0.6666666666666666 0.9208433329999999
 O3 O 0.5742233296666667 0.3333333333333333 0.7458233336666666
 O3 O 0.5742233296666667 0.6666666666666666 0.7458233336666666
 O3 O 0.42577667033333333 0.3333333333333333
  0.9208433329999999
 O3 O 0.42577667033333333 0.6666666666666666
  0.9208433329999999
 O3 O 0.592443337 0.5 0.7458233336666666
 O3 O 0.407556663 0.5 0.9208433329999999
 O3 O 0.407556663 0.5 0.7458233336666666
 O3 O 0.592443337 0.5 0.9208433329999999
 O4 O 0.430979997 0.36505999899999997 0.8333333333333333
 O4 O 0.569020003 0.6349400009999999 0.8333333333333333
 O4 O 0.569020003 0.36505999899999997 0.8333333333333333
 O4 O 0.430979997 0.6349400009999999 0.8333333333333333
 O4 O 0.5976466636666666 0.5317266656666666 0.8333333333333333
 O4 O 0.4023533363333333 0.4682733343333333 0.8333333333333333
 O4 O 0.4023533363333333 0.5317266656666666 0.8333333333333333
 O4 O 0.5976466636666666 0.4682733343333333 0.8333333333333333
 O5 O 0.3708633333333333 0.3333333333333333 0.7454266646666666
 O5 O 0.3708633333333333 0.6666666666666666 0.7454266646666666
 O5 O 0.6291366666666667 0.3333333333333333 0.921240002
 O5 O 0.6291366666666667 0.6666666666666666 0.921240002
 O5 O 0.6291366666666667 0.3333333333333333 0.7454266646666666
 O5 O 0.6291366666666667 0.6666666666666666 0.7454266646666666
 O5 O 0.3708633333333333 0.3333333333333333 0.921240002
 O5 O 0.3708633333333333 0.6666666666666666 0.921240002
 O5 O 0.53753 0.5 0.7454266646666666
 O5 O 0.46246999999999994 0.5 0.921240002
 O5 O 0.46246999999999994 0.5 0.7454266646666666
 O5 O 0.53753 0.5 0.921240002
 O6 O 0.36554666599999996 0.3648333326666666
  0.8333333333333333
 O6 O 0.634453334 0.6351666673333334 0.8333333333333333
 O6 O 0.634453334 0.3648333326666666 0.8333333333333333
 O6 O 0.36554666599999996 0.6351666673333334
  0.8333333333333333
 O6 O 0.5322133326666667 0.5314999993333334 0.8333333333333333
 O6 O 0.4677866673333333 0.46850000066666664
  0.8333333333333333
 O6 O 0.4677866673333333 0.5314999993333334 0.8333333333333333
 O6 O 0.5322133326666667 0.46850000066666664
  0.8333333333333333
 O7 O 0.35979333266666663 0.38023999833333333 0.724486669
 O7 O 0.6402066673333333 0.6197600016666667 0.9421799976666667
 O7 O 0.6402066673333333 0.6197600016666667 0.724486669
 O7 O 0.35979333266666663 0.38023999833333333
  0.9421799976666667
 O7 O 0.6402066673333333 0.38023999833333333
  0.9421799976666667
 O7 O 0.35979333266666663 0.6197600016666667 0.724486669
 O7 O 0.35979333266666663 0.6197600016666667
  0.9421799976666667
 O7 O 0.6402066673333333 0.38023999833333333 0.724486669
 O7 O 0.5264599993333333 0.546906665 0.724486669
 O7 O 0.4735400006666667 0.453093335 0.9421799976666667
 O7 O 0.4735400006666667 0.453093335 0.724486669
 O7 O 0.5264599993333333 0.546906665 0.9421799976666667
 O7 O 0.4735400006666667 0.546906665 0.9421799976666667
 O7 O 0.5264599993333333 0.453093335 0.724486669
 O7 O 0.5264599993333333 0.453093335 0.9421799976666667
 O7 O 0.4735400006666667 0.546906665 0.724486669
 O8 O 0.41666666666666663 0.41666666666666663
  0.6666666666666666
 O8 O 0.41666666666666663 0.41666666666666663 1.0
 O8 O 0.5833333333333333 0.5833333333333333 0.6666666666666666
 O8 O 0.5833333333333333 0.5833333333333333 1.0
 O8 O 0.5833333333333333 0.41666666666666663
  0.6666666666666666
 O8 O 0.5833333333333333 0.41666666666666663 1.0
 O8 O 0.41666666666666663 0.5833333333333333
  0.6666666666666666
 O8 O 0.41666666666666663 0.5833333333333333 1.0
 O9 O 0.37454999966666663 0.4195899963333333
  0.6666666666666666
 O9 O 0.37454999966666663 0.4195899963333333 1.0
 O9 O 0.6254500003333333 0.5804100036666666 0.6666666666666666
 O9 O 0.6254500003333333 0.5804100036666666 1.0
 O9 O 0.6254500003333333 0.4195899963333333 0.6666666666666666
 O9 O 0.6254500003333333 0.4195899963333333 1.0
 O9 O 0.37454999966666663 0.5804100036666666
  0.6666666666666666
 O9 O 0.37454999966666663 0.5804100036666666 1.0
 O9 O 0.5412166663333333 0.586256663 0.6666666666666666
 O9 O 0.5412166663333333 0.586256663 1.0
 O9 O 0.4587833336666667 0.413743337 0.6666666666666666
 O9 O 0.4587833336666667 0.413743337 1.0
 O9 O 0.4587833336666667 0.586256663 0.6666666666666666
 O9 O 0.4587833336666667 0.586256663 1.0
 O9 O 0.5412166663333333 0.413743337 0.6666666666666666
 O9 O 0.5412166663333333 0.413743337 1.0
 O10 O 0.3333333333333333 0.408766667 0.6666666666666666
 O10 O 0.3333333333333333 0.408766667 1.0
 O10 O 0.6666666666666666 0.408766667 0.6666666666666666
 O10 O 0.6666666666666666 0.408766667 1.0
 O10 O 0.3333333333333333 0.5912333329999999
  0.6666666666666666
 O10 O 0.3333333333333333 0.5912333329999999 1.0
 O10 O 0.6666666666666666 0.5912333329999999
  0.6666666666666666
 O10 O 0.6666666666666666 0.5912333329999999 1.0
 O10 O 0.5 0.5754333336666666 0.6666666666666666
 O10 O 0.5 0.5754333336666666 1.0
 O10 O 0.5 0.42456666633333334 0.6666666666666666
 O10 O 0.5 0.42456666633333334 1.0
 O2 O 0.39682333666666664 0.4528466663333333
  0.6090299983333334
 O2 O 0.39682333666666664 0.4528466663333333
  1.0576366683333334
 O2 O 0.6031766633333333 0.5471533336666666 0.6090299983333334
 O2 O 0.6031766633333333 0.5471533336666666 1.0576366683333334
 O2 O 0.6031766633333333 0.4528466663333333 0.6090299983333334
 O2 O 0.6031766633333333 0.4528466663333333 1.0576366683333334
 O2 O 0.39682333666666664 0.5471533336666666
  0.6090299983333334
 O2 O 0.39682333666666664 0.5471533336666666
  1.0576366683333334
 O2 O 0.5634900033333333 0.619513333 0.6090299983333334
 O2 O 0.5634900033333333 0.619513333 1.0576366683333334
 O2 O 0.4365099966666666 0.380486667 0.6090299983333334
 O2 O 0.4365099966666666 0.380486667 1.0576366683333334
 O2 O 0.4365099966666666 0.619513333 0.6090299983333334
 O2 O 0.4365099966666666 0.619513333 1.0576366683333334
 O2 O 0.5634900033333333 0.380486667 0.6090299983333334
 O2 O 0.5634900033333333 0.380486667 1.0576366683333334
 O7 O 0.35979333266666663 0.38023999833333333
  0.6088466643333332
 O7 O 0.35979333266666663 0.38023999833333333
  1.0578200023333333
 O7 O 0.6402066673333333 0.6197600016666667 0.6088466643333332
 O7 O 0.6402066673333333 0.6197600016666667 1.0578200023333333
 O7 O 0.6402066673333333 0.38023999833333333
  0.6088466643333332
 O7 O 0.6402066673333333 0.38023999833333333
  1.0578200023333333
 O7 O 0.35979333266666663 0.6197600016666667
  0.6088466643333332
 O7 O 0.35979333266666663 0.6197600016666667
  1.0578200023333333
 O7 O 0.5264599993333333 0.546906665 0.6088466643333332
 O7 O 0.5264599993333333 0.546906665 1.0578200023333333
 O7 O 0.4735400006666667 0.453093335 0.6088466643333332
 O7 O 0.4735400006666667 0.453093335 1.0578200023333333
 O7 O 0.4735400006666667 0.546906665 0.6088466643333332
 O7 O 0.4735400006666667 0.546906665 1.0578200023333333
 O7 O 0.5264599993333333 0.453093335 0.6088466643333332
 O7 O 0.5264599993333333 0.453093335 1.0578200023333333
 Si1 Si 0.7563133339999999 0.36214666566666665
  0.7664466699999999
 Si1 Si 0.9103533326666666 0.6378533343333332
  0.9002199966666666
 Si1 Si 0.9103533326666666 0.6378533343333332
  0.7664466699999999
 Si1 Si 0.7563133339999999 0.36214666566666665
  0.9002199966666666
 Si1 Si 0.9103533326666666 0.36214666566666665
  0.9002199966666666
 Si1 Si 0.7563133339999999 0.6378533343333332
  0.7664466699999999
 Si1 Si 0.7563133339999999 0.6378533343333332
  0.9002199966666666
 Si1 Si 0.9103533326666666 0.36214666566666665
  0.7664466699999999
 Si1 Si 0.9229800006666666 0.5288133323333333
  0.7664466699999999
 Si1 Si 0.7436866659999999 0.4711866676666666
  0.9002199966666666
 Si1 Si 0.7436866659999999 0.4711866676666666
  0.7664466699999999
 Si1 Si 0.9229800006666666 0.5288133323333333
  0.9002199966666666
 Si1 Si 0.7436866659999999 0.5288133323333333
  0.9002199966666666
 Si1 Si 0.9229800006666666 0.4711866676666666
  0.7664466699999999
 Si1 Si 0.9229800006666666 0.4711866676666666
  0.9002199966666666
 Si1 Si 0.7436866659999999 0.5288133323333333
  0.7664466699999999
 Si2 Si 0.7069066663333332 0.36210000033333334
  0.7664433319999999
 Si2 Si 0.9597600003333333 0.6378999996666667
  0.9002233346666666
 Si2 Si 0.9597600003333333 0.6378999996666667
  0.7664433319999999
 Si2 Si 0.7069066663333332 0.36210000033333334
  0.9002233346666666
 Si2 Si 0.9597600003333333 0.36210000033333334
  0.9002233346666666
 Si2 Si 0.7069066663333332 0.6378999996666667
  0.7664433319999999
 Si2 Si 0.7069066663333332 0.6378999996666667
  0.9002233346666666
 Si2 Si 0.9597600003333333 0.36210000033333334
  0.7664433319999999
 Si2 Si 0.873573333 0.528766667 0.7664433319999999
 Si2 Si 0.7930933336666666 0.471233333 0.9002233346666666
 Si2 Si 0.7930933336666666 0.471233333 0.7664433319999999
 Si2 Si 0.873573333 0.528766667 0.9002233346666666
 Si2 Si 0.7930933336666666 0.528766667 0.9002233346666666
 Si2 Si 0.873573333 0.471233333 0.7664433319999999
 Si2 Si 0.873573333 0.471233333 0.9002233346666666
 Si2 Si 0.7930933336666666 0.528766667 0.7664433319999999
 Si3 Si 0.7298166653333333 0.435259998 0.6666666666666666
 Si3 Si 0.7298166653333333 0.435259998 1.0
 Si3 Si 0.9368500013333332 0.564740002 0.6666666666666666
 Si3 Si 0.9368500013333332 0.564740002 1.0
 Si3 Si 0.9368500013333332 0.435259998 0.6666666666666666
 Si3 Si 0.9368500013333332 0.435259998 1.0
 Si3 Si 0.7298166653333333 0.564740002 0.6666666666666666
 Si3 Si 0.7298166653333333 0.564740002 1.0
 Si3 Si 0.8964833319999999 0.6019266646666667
  0.6666666666666666
 Si3 Si 0.8964833319999999 0.6019266646666667 1.0
 Si3 Si 0.7701833346666667 0.39807333533333333
  0.6666666666666666
 Si3 Si 0.7701833346666667 0.39807333533333333 1.0
 Si3 Si 0.7701833346666667 0.6019266646666667
  0.6666666666666666
 Si3 Si 0.7701833346666667 0.6019266646666667 1.0
 Si3 Si 0.8964833319999999 0.39807333533333333
  0.6666666666666666
 Si3 Si 0.8964833319999999 0.39807333533333333 1.0
 Si4 Si 0.6904733329999999 0.39739333099999996
  0.6666666666666666
 Si4 Si 0.6904733329999999 0.39739333099999996 1.0
 Si4 Si 0.9761933336666666 0.602606669 0.6666666666666666
 Si4 Si 0.9761933336666666 0.602606669 1.0
 Si4 Si 0.9761933336666666 0.39739333099999996
  0.6666666666666666
 Si4 Si 0.9761933336666666 0.39739333099999996 1.0
 Si4 Si 0.6904733329999999 0.602606669 0.6666666666666666
 Si4 Si 0.6904733329999999 0.602606669 1.0
 Si4 Si 0.8571399996666667 0.5640599976666667
  0.6666666666666666
 Si4 Si 0.8571399996666667 0.5640599976666667 1.0
 Si4 Si 0.8095266669999999 0.4359400023333333
  0.6666666666666666
 Si4 Si 0.8095266669999999 0.4359400023333333 1.0
 Si4 Si 0.8095266669999999 0.5640599976666667
  0.6666666666666666
 Si4 Si 0.8095266669999999 0.5640599976666667 1.0
 Si4 Si 0.8571399996666667 0.4359400023333333
  0.6666666666666666
 Si4 Si 0.8571399996666667 0.4359400023333333 1.0
 O1 O 0.7316033343333332 0.37004666766666666
  0.7625466683333333
 O1 O 0.9350633323333333 0.6299533323333333 0.9041199983333332
 O1 O 0.9350633323333333 0.6299533323333333 0.7625466683333333
 O1 O 0.7316033343333332 0.37004666766666666
  0.9041199983333332
 O1 O 0.9350633323333333 0.37004666766666666
  0.9041199983333332
 O1 O 0.7316033343333332 0.6299533323333333 0.7625466683333333
 O1 O 0.7316033343333332 0.6299533323333333 0.9041199983333332
 O1 O 0.9350633323333333 0.37004666766666666
  0.7625466683333333
 O1 O 0.898270001 0.5367133343333333 0.7625466683333333
 O1 O 0.7683966656666666 0.46328666566666665
  0.9041199983333332
 O1 O 0.7683966656666666 0.46328666566666665
  0.7625466683333333
 O1 O 0.898270001 0.5367133343333333 0.9041199983333332
 O1 O 0.7683966656666666 0.5367133343333333 0.9041199983333332
 O1 O 0.898270001 0.46328666566666665 0.7625466683333333
 O1 O 0.898270001 0.46328666566666665 0.9041199983333332
 O1 O 0.7683966656666666 0.5367133343333333 0.7625466683333333
 O2 O 0.7698433299999999 0.380486667 0.7243033349999999
 O2 O 0.8968233366666667 0.619513333 0.9423633316666666
 O2 O 0.8968233366666667 0.619513333 0.7243033349999999
 O2 O 0.7698433299999999 0.380486667 0.9423633316666666
 O2 O 0.8968233366666667 0.380486667 0.9423633316666666
 O2 O 0.7698433299999999 0.619513333 0.7243033349999999
 O2 O 0.7698433299999999 0.619513333 0.9423633316666666
 O2 O 0.8968233366666667 0.380486667 0.7243033349999999
 O2 O 0.9365099966666666 0.5471533336666666 0.7243033349999999
 O2 O 0.73015667 0.4528466663333333 0.9423633316666666
 O2 O 0.73015667 0.4528466663333333 0.7243033349999999
 O2 O 0.9365099966666666 0.5471533336666666 0.9423633316666666
 O2 O 0.73015667 0.5471533336666666 0.9423633316666666
 O2 O 0.9365099966666666 0.4528466663333333 0.7243033349999999
 O2 O 0.9365099966666666 0.4528466663333333 0.9423633316666666
 O2 O 0.73015667 0.5471533336666666 0.7243033349999999
 O3 O 0.7591100036666667 0.3333333333333333 0.7458233336666666
 O3 O 0.7591100036666667 0.6666666666666666 0.7458233336666666
 O3 O 0.907556663 0.3333333333333333 0.9208433329999999
 O3 O 0.907556663 0.6666666666666666 0.9208433329999999
 O3 O 0.907556663 0.3333333333333333 0.7458233336666666
 O3 O 0.907556663 0.6666666666666666 0.7458233336666666
 O3 O 0.7591100036666667 0.3333333333333333 0.9208433329999999
 O3 O 0.7591100036666667 0.6666666666666666 0.9208433329999999
 O3 O 0.9257766703333332 0.5 0.7458233336666666
 O3 O 0.7408899963333333 0.5 0.9208433329999999
 O3 O 0.7408899963333333 0.5 0.7458233336666666
 O3 O 0.9257766703333332 0.5 0.9208433329999999
 O4 O 0.7643133303333334 0.36505999899999997
  0.8333333333333333
 O4 O 0.9023533363333334 0.6349400009999999 0.8333333333333333
 O4 O 0.9023533363333334 0.36505999899999997
  0.8333333333333333
 O4 O 0.7643133303333334 0.6349400009999999 0.8333333333333333
 O4 O 0.9309799969999999 0.5317266656666666 0.8333333333333333
 O4 O 0.7356866696666666 0.4682733343333333 0.8333333333333333
 O4 O 0.7356866696666666 0.5317266656666666 0.8333333333333333
 O4 O 0.9309799969999999 0.4682733343333333 0.8333333333333333
 O5 O 0.7041966666666666 0.3333333333333333 0.7454266646666666
 O5 O 0.7041966666666666 0.6666666666666666 0.7454266646666666
 O5 O 0.9624699999999999 0.3333333333333333 0.921240002
 O5 O 0.9624699999999999 0.6666666666666666 0.921240002
 O5 O 0.9624699999999999 0.3333333333333333 0.7454266646666666
 O5 O 0.9624699999999999 0.6666666666666666 0.7454266646666666
 O5 O 0.7041966666666666 0.3333333333333333 0.921240002
 O5 O 0.7041966666666666 0.6666666666666666 0.921240002
 O5 O 0.8708633333333333 0.5 0.7454266646666666
 O5 O 0.7958033333333332 0.5 0.921240002
 O5 O 0.7958033333333332 0.5 0.7454266646666666
 O5 O 0.8708633333333333 0.5 0.921240002
 O6 O 0.6988799993333332 0.3648333326666666 0.8333333333333333
 O6 O 0.9677866673333333 0.6351666673333334 0.8333333333333333
 O6 O 0.9677866673333333 0.3648333326666666 0.8333333333333333
 O6 O 0.6988799993333332 0.6351666673333334 0.8333333333333333
 O6 O 0.865546666 0.5314999993333334 0.8333333333333333
 O6 O 0.8011200006666666 0.46850000066666664
  0.8333333333333333
 O6 O 0.8011200006666666 0.5314999993333334 0.8333333333333333
 O6 O 0.865546666 0.46850000066666664 0.8333333333333333
 O7 O 0.693126666 0.38023999833333333 0.724486669
 O7 O 0.9735400006666666 0.6197600016666667 0.9421799976666667
 O7 O 0.9735400006666666 0.6197600016666667 0.724486669
 O7 O 0.693126666 0.38023999833333333 0.9421799976666667
 O7 O 0.9735400006666666 0.38023999833333333
  0.9421799976666667
 O7 O 0.693126666 0.6197600016666667 0.724486669
 O7 O 0.693126666 0.6197600016666667 0.9421799976666667
 O7 O 0.9735400006666666 0.38023999833333333 0.724486669
 O7 O 0.8597933326666667 0.546906665 0.724486669
 O7 O 0.806873334 0.453093335 0.9421799976666667
 O7 O 0.806873334 0.453093335 0.724486669
 O7 O 0.8597933326666667 0.546906665 0.9421799976666667
 O7 O 0.806873334 0.546906665 0.9421799976666667
 O7 O 0.8597933326666667 0.453093335 0.724486669
 O7 O 0.8597933326666667 0.453093335 0.9421799976666667
 O7 O 0.806873334 0.546906665 0.724486669
 O8 O 0.75 0.41666666666666663 0.6666666666666666
 O8 O 0.75 0.41666666666666663 1.0
 O8 O 0.9166666666666665 0.5833333333333333 0.6666666666666666
 O8 O 0.9166666666666665 0.5833333333333333 1.0
 O8 O 0.9166666666666665 0.41666666666666663
  0.6666666666666666
 O8 O 0.9166666666666665 0.41666666666666663 1.0
 O8 O 0.75 0.5833333333333333 0.6666666666666666
 O8 O 0.75 0.5833333333333333 1.0
 O9 O 0.707883333 0.4195899963333333 0.6666666666666666
 O9 O 0.707883333 0.4195899963333333 1.0
 O9 O 0.9587833336666667 0.5804100036666666 0.6666666666666666
 O9 O 0.9587833336666667 0.5804100036666666 1.0
 O9 O 0.9587833336666667 0.4195899963333333 0.6666666666666666
 O9 O 0.9587833336666667 0.4195899963333333 1.0
 O9 O 0.707883333 0.5804100036666666 0.6666666666666666
 O9 O 0.707883333 0.5804100036666666 1.0
 O9 O 0.8745499996666666 0.586256663 0.6666666666666666
 O9 O 0.8745499996666666 0.586256663 1.0
 O9 O 0.7921166669999999 0.413743337 0.6666666666666666
 O9 O 0.7921166669999999 0.413743337 1.0
 O9 O 0.7921166669999999 0.586256663 0.6666666666666666
 O9 O 0.7921166669999999 0.586256663 1.0
 O9 O 0.8745499996666666 0.413743337 0.6666666666666666
 O9 O 0.8745499996666666 0.413743337 1.0
 O10 O 0.6666666666666666 0.408766667 0.6666666666666666
 O10 O 0.6666666666666666 0.408766667 1.0
 O10 O 1.0 0.408766667 0.6666666666666666
 O10 O 1.0 0.408766667 1.0
 O10 O 0.6666666666666666 0.5912333329999999
  0.6666666666666666
 O10 O 0.6666666666666666 0.5912333329999999 1.0
 O10 O 1.0 0.5912333329999999 0.6666666666666666
 O10 O 1.0 0.5912333329999999 1.0
 O10 O 0.8333333333333333 0.5754333336666666
  0.6666666666666666
 O10 O 0.8333333333333333 0.5754333336666666 1.0
 O10 O 0.8333333333333333 0.42456666633333334
  0.6666666666666666
 O10 O 0.8333333333333333 0.42456666633333334 1.0
 O2 O 0.73015667 0.4528466663333333 0.6090299983333334
 O2 O 0.73015667 0.4528466663333333 1.0576366683333334
 O2 O 0.9365099966666666 0.5471533336666666 0.6090299983333334
 O2 O 0.9365099966666666 0.5471533336666666 1.0576366683333334
 O2 O 0.9365099966666666 0.4528466663333333 0.6090299983333334
 O2 O 0.9365099966666666 0.4528466663333333 1.0576366683333334
 O2 O 0.73015667 0.5471533336666666 0.6090299983333334
 O2 O 0.73015667 0.5471533336666666 1.0576366683333334
 O2 O 0.8968233366666667 0.619513333 0.6090299983333334
 O2 O 0.8968233366666667 0.619513333 1.0576366683333334
 O2 O 0.7698433299999999 0.380486667 0.6090299983333334
 O2 O 0.7698433299999999 0.380486667 1.0576366683333334
 O2 O 0.7698433299999999 0.619513333 0.6090299983333334
 O2 O 0.7698433299999999 0.619513333 1.0576366683333334
 O2 O 0.8968233366666667 0.380486667 0.6090299983333334
 O2 O 0.8968233366666667 0.380486667 1.0576366683333334
 O7 O 0.693126666 0.38023999833333333 0.6088466643333332
 O7 O 0.693126666 0.38023999833333333 1.0578200023333333
 O7 O 0.9735400006666666 0.6197600016666667 0.6088466643333332
 O7 O 0.9735400006666666 0.6197600016666667 1.0578200023333333
 O7 O 0.9735400006666666 0.38023999833333333
  0.6088466643333332
 O7 O 0.9735400006666666 0.38023999833333333
  1.0578200023333333
 O7 O 0.693126666 0.6197600016666667 0.6088466643333332
 O7 O 0.693126666 0.6197600016666667 1.0578200023333333
 O7 O 0.8597933326666667 0.546906665 0.6088466643333332
 O7 O 0.8597933326666667 0.546906665 1.0578200023333333
 O7 O 0.806873334 0.453093335 0.6088466643333332
 O7 O 0.806873334 0.453093335 1.0578200023333333
 O7 O 0.806873334 0.546906665 0.6088466643333332
 O7 O 0.806873334 0.546906665 1.0578200023333333
 O7 O 0.8597933326666667 0.453093335 0.6088466643333332
 O7 O 0.8597933326666667 0.453093335 1.0578200023333333
 Si1 Si 0.08964666733333333 0.695479999 0.7664466699999999
 Si1 Si 0.243686666 0.9711866676666665 0.9002199966666666
 Si1 Si 0.243686666 0.9711866676666665 0.7664466699999999
 Si1 Si 0.08964666733333333 0.695479999 0.9002199966666666
 Si1 Si 0.243686666 0.695479999 0.9002199966666666
 Si1 Si 0.08964666733333333 0.9711866676666665
  0.7664466699999999
 Si1 Si 0.08964666733333333 0.9711866676666665
  0.9002199966666666
 Si1 Si 0.243686666 0.695479999 0.7664466699999999
 Si1 Si 0.256313334 0.8621466656666665 0.7664466699999999
 Si1 Si 0.07701999933333332 0.804520001 0.9002199966666666
 Si1 Si 0.07701999933333332 0.804520001 0.7664466699999999
 Si1 Si 0.256313334 0.8621466656666665 0.9002199966666666
 Si1 Si 0.07701999933333332 0.8621466656666665
  0.9002199966666666
 Si1 Si 0.256313334 0.804520001 0.7664466699999999
 Si1 Si 0.256313334 0.804520001 0.9002199966666666
 Si1 Si 0.07701999933333332 0.8621466656666665
  0.7664466699999999
 Si2 Si 0.040239999666666665 0.6954333336666667
  0.7664433319999999
 Si2 Si 0.2930933336666667 0.971233333 0.9002233346666666
 Si2 Si 0.2930933336666667 0.971233333 0.7664433319999999
 Si2 Si 0.040239999666666665 0.6954333336666667
  0.9002233346666666
 Si2 Si 0.2930933336666667 0.6954333336666667
  0.9002233346666666
 Si2 Si 0.040239999666666665 0.971233333 0.7664433319999999
 Si2 Si 0.040239999666666665 0.971233333 0.9002233346666666
 Si2 Si 0.2930933336666667 0.6954333336666667
  0.7664433319999999
 Si2 Si 0.20690666633333332 0.8621000003333332
  0.7664433319999999
 Si2 Si 0.126426667 0.8045666663333333 0.9002233346666666
 Si2 Si 0.126426667 0.8045666663333333 0.7664433319999999
 Si2 Si 0.20690666633333332 0.8621000003333332
  0.9002233346666666
 Si2 Si 0.126426667 0.8621000003333332 0.9002233346666666
 Si2 Si 0.20690666633333332 0.8045666663333333
  0.7664433319999999
 Si2 Si 0.20690666633333332 0.8045666663333333
  0.9002233346666666
 Si2 Si 0.126426667 0.8621000003333332 0.7664433319999999
 Si3 Si 0.06314999866666667 0.7685933313333333
  0.6666666666666666
 Si3 Si 0.06314999866666667 0.7685933313333333 1.0
 Si3 Si 0.27018333466666666 0.8980733353333332
  0.6666666666666666
 Si3 Si 0.27018333466666666 0.8980733353333332 1.0
 Si3 Si 0.27018333466666666 0.7685933313333333
  0.6666666666666666
 Si3 Si 0.27018333466666666 0.7685933313333333 1.0
 Si3 Si 0.06314999866666667 0.8980733353333332
  0.6666666666666666
 Si3 Si 0.06314999866666667 0.8980733353333332 1.0
 Si3 Si 0.22981666533333334 0.935259998 0.6666666666666666
 Si3 Si 0.22981666533333334 0.935259998 1.0
 Si3 Si 0.10351666799999999 0.7314066686666667
  0.6666666666666666
 Si3 Si 0.10351666799999999 0.7314066686666667 1.0
 Si3 Si 0.10351666799999999 0.935259998 0.6666666666666666
 Si3 Si 0.10351666799999999 0.935259998 1.0
 Si3 Si 0.22981666533333334 0.7314066686666667
  0.6666666666666666
 Si3 Si 0.22981666533333334 0.7314066686666667 1.0
 Si4 Si 0.023806666333333334 0.7307266643333332
  0.6666666666666666
 Si4 Si 0.023806666333333334 0.7307266643333332 1.0
 Si4 Si 0.30952666700000003 0.9359400023333333
  0.6666666666666666
 Si4 Si 0.30952666700000003 0.9359400023333333 1.0
 Si4 Si 0.30952666700000003 0.7307266643333332
  0.6666666666666666
 Si4 Si 0.30952666700000003 0.7307266643333332 1.0
 Si4 Si 0.023806666333333334 0.9359400023333333
  0.6666666666666666
 Si4 Si 0.023806666333333334 0.9359400023333333 1.0
 Si4 Si 0.190473333 0.897393331 0.6666666666666666
 Si4 Si 0.190473333 0.897393331 1.0
 Si4 Si 0.14286000033333332 0.7692733356666666
  0.6666666666666666
 Si4 Si 0.14286000033333332 0.7692733356666666 1.0
 Si4 Si 0.14286000033333332 0.897393331 0.6666666666666666
 Si4 Si 0.14286000033333332 0.897393331 1.0
 Si4 Si 0.190473333 0.7692733356666666 0.6666666666666666
 Si4 Si 0.190473333 0.7692733356666666 1.0
 O1 O 0.06493666766666667 0.703380001 0.7625466683333333
 O1 O 0.2683966656666667 0.9632866656666665 0.9041199983333332
 O1 O 0.2683966656666667 0.9632866656666665 0.7625466683333333
 O1 O 0.06493666766666667 0.703380001 0.9041199983333332
 O1 O 0.2683966656666667 0.703380001 0.9041199983333332
 O1 O 0.06493666766666667 0.9632866656666665
  0.7625466683333333
 O1 O 0.06493666766666667 0.9632866656666665
  0.9041199983333332
 O1 O 0.2683966656666667 0.703380001 0.7625466683333333
 O1 O 0.23160333433333333 0.8700466676666667
  0.7625466683333333
 O1 O 0.101729999 0.796619999 0.9041199983333332
 O1 O 0.101729999 0.796619999 0.7625466683333333
 O1 O 0.23160333433333333 0.8700466676666667
  0.9041199983333332
 O1 O 0.101729999 0.8700466676666667 0.9041199983333332
 O1 O 0.23160333433333333 0.796619999 0.7625466683333333
 O1 O 0.23160333433333333 0.796619999 0.9041199983333332
 O1 O 0.101729999 0.8700466676666667 0.7625466683333333
 O2 O 0.10317666333333332 0.7138200003333333
  0.7243033349999999
 O2 O 0.23015666999999998 0.9528466663333333
  0.9423633316666666
 O2 O 0.23015666999999998 0.9528466663333333
  0.7243033349999999
 O2 O 0.10317666333333332 0.7138200003333333
  0.9423633316666666
 O2 O 0.23015666999999998 0.7138200003333333
  0.9423633316666666
 O2 O 0.10317666333333332 0.9528466663333333
  0.7243033349999999
 O2 O 0.10317666333333332 0.9528466663333333
  0.9423633316666666
 O2 O 0.23015666999999998 0.7138200003333333
  0.7243033349999999
 O2 O 0.26984333 0.880486667 0.7243033349999999
 O2 O 0.06349000333333334 0.7861799996666666
  0.9423633316666666
 O2 O 0.06349000333333334 0.7861799996666666
  0.7243033349999999
 O2 O 0.26984333 0.880486667 0.9423633316666666
 O2 O 0.06349000333333334 0.880486667 0.9423633316666666
 O2 O 0.26984333 0.7861799996666666 0.7243033349999999
 O2 O 0.26984333 0.7861799996666666 0.9423633316666666
 O2 O 0.06349000333333334 0.880486667 0.7243033349999999
 O3 O 0.092443337 0.6666666666666666 0.7458233336666666
 O3 O 0.092443337 1.0 0.7458233336666666
 O3 O 0.24088999633333333 0.6666666666666666
  0.9208433329999999
 O3 O 0.24088999633333333 1.0 0.9208433329999999
 O3 O 0.24088999633333333 0.6666666666666666
  0.7458233336666666
 O3 O 0.24088999633333333 1.0 0.7458233336666666
 O3 O 0.092443337 0.6666666666666666 0.9208433329999999
 O3 O 0.092443337 1.0 0.9208433329999999
 O3 O 0.25911000366666664 0.8333333333333333
  0.7458233336666666
 O3 O 0.07422332966666667 0.8333333333333333
  0.9208433329999999
 O3 O 0.07422332966666667 0.8333333333333333
  0.7458233336666666
 O3 O 0.25911000366666664 0.8333333333333333
  0.9208433329999999
 O4 O 0.09764666366666667 0.6983933323333333
  0.8333333333333333
 O4 O 0.23568666966666665 0.9682733343333332
  0.8333333333333333
 O4 O 0.23568666966666665 0.6983933323333333
  0.8333333333333333
 O4 O 0.09764666366666667 0.9682733343333332
  0.8333333333333333
 O4 O 0.2643133303333333 0.8650599989999999 0.8333333333333333
 O4 O 0.069020003 0.8016066676666667 0.8333333333333333
 O4 O 0.069020003 0.8650599989999999 0.8333333333333333
 O4 O 0.2643133303333333 0.8016066676666667 0.8333333333333333
 O5 O 0.03753 0.6666666666666666 0.7454266646666666
 O5 O 0.03753 1.0 0.7454266646666666
 O5 O 0.29580333333333336 0.6666666666666666 0.921240002
 O5 O 0.29580333333333336 1.0 0.921240002
 O5 O 0.29580333333333336 0.6666666666666666
  0.7454266646666666
 O5 O 0.29580333333333336 1.0 0.7454266646666666
 O5 O 0.03753 0.6666666666666666 0.921240002
 O5 O 0.03753 1.0 0.921240002
 O5 O 0.20419666666666667 0.8333333333333333
  0.7454266646666666
 O5 O 0.12913666666666665 0.8333333333333333 0.921240002
 O5 O 0.12913666666666665 0.8333333333333333
  0.7454266646666666
 O5 O 0.20419666666666667 0.8333333333333333 0.921240002
 O6 O 0.03221333266666667 0.6981666659999999
  0.8333333333333333
 O6 O 0.30112000066666667 0.9685000006666666
  0.8333333333333333
 O6 O 0.30112000066666667 0.6981666659999999
  0.8333333333333333
 O6 O 0.03221333266666667 0.9685000006666666
  0.8333333333333333
 O6 O 0.19887999933333333 0.8648333326666666
  0.8333333333333333
 O6 O 0.134453334 0.8018333339999999 0.8333333333333333
 O6 O 0.134453334 0.8648333326666666 0.8333333333333333
 O6 O 0.19887999933333333 0.8018333339999999
  0.8333333333333333
 O7 O 0.02645999933333333 0.7135733316666666 0.724486669
 O7 O 0.306873334 0.9530933349999999 0.9421799976666667
 O7 O 0.306873334 0.9530933349999999 0.724486669
 O7 O 0.02645999933333333 0.7135733316666666
  0.9421799976666667
 O7 O 0.306873334 0.7135733316666666 0.9421799976666667
 O7 O 0.02645999933333333 0.9530933349999999 0.724486669
 O7 O 0.02645999933333333 0.9530933349999999
  0.9421799976666667
 O7 O 0.306873334 0.7135733316666666 0.724486669
 O7 O 0.19312666599999997 0.8802399983333333 0.724486669
 O7 O 0.14020666733333334 0.7864266683333333
  0.9421799976666667
 O7 O 0.14020666733333334 0.7864266683333333 0.724486669
 O7 O 0.19312666599999997 0.8802399983333333
  0.9421799976666667
 O7 O 0.14020666733333334 0.8802399983333333
  0.9421799976666667
 O7 O 0.19312666599999997 0.7864266683333333 0.724486669
 O7 O 0.19312666599999997 0.7864266683333333
  0.9421799976666667
 O7 O 0.14020666733333334 0.8802399983333333 0.724486669
 O8 O 0.08333333333333333 0.75 0.6666666666666666
 O8 O 0.08333333333333333 0.75 1.0
 O8 O 0.25 0.9166666666666665 0.6666666666666666
 O8 O 0.25 0.9166666666666665 1.0
 O8 O 0.25 0.75 0.6666666666666666
 O8 O 0.25 0.75 1.0
 O8 O 0.08333333333333333 0.9166666666666665
  0.6666666666666666
 O8 O 0.08333333333333333 0.9166666666666665 1.0
 O9 O 0.04121666633333333 0.7529233296666666
  0.6666666666666666
 O9 O 0.04121666633333333 0.7529233296666666 1.0
 O9 O 0.292116667 0.9137433369999999 0.6666666666666666
 O9 O 0.292116667 0.9137433369999999 1.0
 O9 O 0.292116667 0.7529233296666666 0.6666666666666666
 O9 O 0.292116667 0.7529233296666666 1.0
 O9 O 0.04121666633333333 0.9137433369999999
  0.6666666666666666
 O9 O 0.04121666633333333 0.9137433369999999 1.0
 O9 O 0.20788333299999998 0.9195899963333334
  0.6666666666666666
 O9 O 0.20788333299999998 0.9195899963333334 1.0
 O9 O 0.12545000033333334 0.7470766703333334
  0.6666666666666666
 O9 O 0.12545000033333334 0.7470766703333334 1.0
 O9 O 0.12545000033333334 0.9195899963333334
  0.6666666666666666
 O9 O 0.12545000033333334 0.9195899963333334 1.0
 O9 O 0.20788333299999998 0.7470766703333334
  0.6666666666666666
 O9 O 0.20788333299999998 0.7470766703333334 1.0
 O10 O 0.0 0.7421000003333333 0.6666666666666666
 O10 O 0.0 0.7421000003333333 1.0
 O10 O 0.3333333333333333 0.7421000003333333
  0.6666666666666666
 O10 O 0.3333333333333333 0.7421000003333333 1.0
 O10 O 0.0 0.9245666663333332 0.6666666666666666
 O10 O 0.0 0.9245666663333332 1.0
 O10 O 0.3333333333333333 0.9245666663333332
  0.6666666666666666
 O10 O 0.3333333333333333 0.9245666663333332 1.0
 O10 O 0.16666666666666666 0.9087666669999999
  0.6666666666666666
 O10 O 0.16666666666666666 0.9087666669999999 1.0
 O10 O 0.16666666666666666 0.7578999996666667
  0.6666666666666666
 O10 O 0.16666666666666666 0.7578999996666667 1.0
 O2 O 0.06349000333333334 0.7861799996666666
  0.6090299983333334
 O2 O 0.06349000333333334 0.7861799996666666
  1.0576366683333334
 O2 O 0.26984333 0.880486667 0.6090299983333334
 O2 O 0.26984333 0.880486667 1.0576366683333334
 O2 O 0.26984333 0.7861799996666666 0.6090299983333334
 O2 O 0.26984333 0.7861799996666666 1.0576366683333334
 O2 O 0.06349000333333334 0.880486667 0.6090299983333334
 O2 O 0.06349000333333334 0.880486667 1.0576366683333334
 O2 O 0.23015666999999998 0.9528466663333333
  0.6090299983333334
 O2 O 0.23015666999999998 0.9528466663333333
  1.0576366683333334
 O2 O 0.10317666333333332 0.7138200003333333
  0.6090299983333334
 O2 O 0.10317666333333332 0.7138200003333333
  1.0576366683333334
 O2 O 0.10317666333333332 0.9528466663333333
  0.6090299983333334
 O2 O 0.10317666333333332 0.9528466663333333
  1.0576366683333334
 O2 O 0.23015666999999998 0.7138200003333333
  0.6090299983333334
 O2 O 0.23015666999999998 0.7138200003333333
  1.0576366683333334
 O7 O 0.02645999933333333 0.7135733316666666
  0.6088466643333332
 O7 O 0.02645999933333333 0.7135733316666666
  1.0578200023333333
 O7 O 0.306873334 0.9530933349999999 0.6088466643333332
 O7 O 0.306873334 0.9530933349999999 1.0578200023333333
 O7 O 0.306873334 0.7135733316666666 0.6088466643333332
 O7 O 0.306873334 0.7135733316666666 1.0578200023333333
 O7 O 0.02645999933333333 0.9530933349999999
  0.6088466643333332
 O7 O 0.02645999933333333 0.9530933349999999
  1.0578200023333333
 O7 O 0.19312666599999997 0.8802399983333333
  0.6088466643333332
 O7 O 0.19312666599999997 0.8802399983333333
  1.0578200023333333
 O7 O 0.14020666733333334 0.7864266683333333
  0.6088466643333332
 O7 O 0.14020666733333334 0.7864266683333333
  1.0578200023333333
 O7 O 0.14020666733333334 0.8802399983333333
  0.6088466643333332
 O7 O 0.14020666733333334 0.8802399983333333
  1.0578200023333333
 O7 O 0.19312666599999997 0.7864266683333333
  0.6088466643333332
 O7 O 0.19312666599999997 0.7864266683333333
  1.0578200023333333
 Si1 Si 0.42298000066666663 0.695479999 0.7664466699999999
 Si1 Si 0.5770199993333334 0.9711866676666665
  0.9002199966666666
 Si1 Si 0.5770199993333334 0.9711866676666665
  0.7664466699999999
 Si1 Si 0.42298000066666663 0.695479999 0.9002199966666666
 Si1 Si 0.5770199993333334 0.695479999 0.9002199966666666
 Si1 Si 0.42298000066666663 0.9711866676666665
  0.7664466699999999
 Si1 Si 0.42298000066666663 0.9711866676666665
  0.9002199966666666
 Si1 Si 0.5770199993333334 0.695479999 0.7664466699999999
 Si1 Si 0.5896466673333334 0.8621466656666665
  0.7664466699999999
 Si1 Si 0.4103533326666666 0.804520001 0.9002199966666666
 Si1 Si 0.4103533326666666 0.804520001 0.7664466699999999
 Si1 Si 0.5896466673333334 0.8621466656666665
  0.9002199966666666
 Si1 Si 0.4103533326666666 0.8621466656666665
  0.9002199966666666
 Si1 Si 0.5896466673333334 0.804520001 0.7664466699999999
 Si1 Si 0.5896466673333334 0.804520001 0.9002199966666666
 Si1 Si 0.4103533326666666 0.8621466656666665
  0.7664466699999999
 Si2 Si 0.37357333299999995 0.6954333336666667
  0.7664433319999999
 Si2 Si 0.626426667 0.971233333 0.9002233346666666
 Si2 Si 0.626426667 0.971233333 0.7664433319999999
 Si2 Si 0.37357333299999995 0.6954333336666667
  0.9002233346666666
 Si2 Si 0.626426667 0.6954333336666667 0.9002233346666666
 Si2 Si 0.37357333299999995 0.971233333 0.7664433319999999
 Si2 Si 0.37357333299999995 0.971233333 0.9002233346666666
 Si2 Si 0.626426667 0.6954333336666667 0.7664433319999999
 Si2 Si 0.5402399996666667 0.8621000003333332
  0.7664433319999999
 Si2 Si 0.4597600003333333 0.8045666663333333
  0.9002233346666666
 Si2 Si 0.4597600003333333 0.8045666663333333
  0.7664433319999999
 Si2 Si 0.5402399996666667 0.8621000003333332
  0.9002233346666666
 Si2 Si 0.4597600003333333 0.8621000003333332
  0.9002233346666666
 Si2 Si 0.5402399996666667 0.8045666663333333
  0.7664433319999999
 Si2 Si 0.5402399996666667 0.8045666663333333
  0.9002233346666666
 Si2 Si 0.4597600003333333 0.8621000003333332
  0.7664433319999999
 Si3 Si 0.39648333199999997 0.7685933313333333
  0.6666666666666666
 Si3 Si 0.39648333199999997 0.7685933313333333 1.0
 Si3 Si 0.6035166679999999 0.8980733353333332
  0.6666666666666666
 Si3 Si 0.6035166679999999 0.8980733353333332 1.0
 Si3 Si 0.6035166679999999 0.7685933313333333
  0.6666666666666666
 Si3 Si 0.6035166679999999 0.7685933313333333 1.0
 Si3 Si 0.39648333199999997 0.8980733353333332
  0.6666666666666666
 Si3 Si 0.39648333199999997 0.8980733353333332 1.0
 Si3 Si 0.5631499986666666 0.935259998 0.6666666666666666
 Si3 Si 0.5631499986666666 0.935259998 1.0
 Si3 Si 0.4368500013333333 0.7314066686666667
  0.6666666666666666
 Si3 Si 0.4368500013333333 0.7314066686666667 1.0
 Si3 Si 0.4368500013333333 0.935259998 0.6666666666666666
 Si3 Si 0.4368500013333333 0.935259998 1.0
 Si3 Si 0.5631499986666666 0.7314066686666667
  0.6666666666666666
 Si3 Si 0.5631499986666666 0.7314066686666667 1.0
 Si4 Si 0.35713999966666665 0.7307266643333332
  0.6666666666666666
 Si4 Si 0.35713999966666665 0.7307266643333332 1.0
 Si4 Si 0.6428600003333333 0.9359400023333333
  0.6666666666666666
 Si4 Si 0.6428600003333333 0.9359400023333333 1.0
 Si4 Si 0.6428600003333333 0.7307266643333332
  0.6666666666666666
 Si4 Si 0.6428600003333333 0.7307266643333332 1.0
 Si4 Si 0.35713999966666665 0.9359400023333333
  0.6666666666666666
 Si4 Si 0.35713999966666665 0.9359400023333333 1.0
 Si4 Si 0.5238066663333333 0.897393331 0.6666666666666666
 Si4 Si 0.5238066663333333 0.897393331 1.0
 Si4 Si 0.4761933336666666 0.7692733356666666
  0.6666666666666666
 Si4 Si 0.4761933336666666 0.7692733356666666 1.0
 Si4 Si 0.4761933336666666 0.897393331 0.6666666666666666
 Si4 Si 0.4761933336666666 0.897393331 1.0
 Si4 Si 0.5238066663333333 0.7692733356666666
  0.6666666666666666
 Si4 Si 0.5238066663333333 0.7692733356666666 1.0
 O1 O 0.398270001 0.703380001 0.7625466683333333
 O1 O 0.601729999 0.9632866656666665 0.9041199983333332
 O1 O 0.601729999 0.9632866656666665 0.7625466683333333
 O1 O 0.398270001 0.703380001 0.9041199983333332
 O1 O 0.601729999 0.703380001 0.9041199983333332
 O1 O 0.398270001 0.9632866656666665 0.7625466683333333
 O1 O 0.398270001 0.9632866656666665 0.9041199983333332
 O1 O 0.601729999 0.703380001 0.7625466683333333
 O1 O 0.5649366676666666 0.8700466676666667 0.7625466683333333
 O1 O 0.43506333233333333 0.796619999 0.9041199983333332
 O1 O 0.43506333233333333 0.796619999 0.7625466683333333
 O1 O 0.5649366676666666 0.8700466676666667 0.9041199983333332
 O1 O 0.43506333233333333 0.8700466676666667
  0.9041199983333332
 O1 O 0.5649366676666666 0.796619999 0.7625466683333333
 O1 O 0.5649366676666666 0.796619999 0.9041199983333332
 O1 O 0.43506333233333333 0.8700466676666667
  0.7625466683333333
 O2 O 0.4365099966666666 0.7138200003333333 0.7243033349999999
 O2 O 0.5634900033333333 0.9528466663333333 0.9423633316666666
 O2 O 0.5634900033333333 0.9528466663333333 0.7243033349999999
 O2 O 0.4365099966666666 0.7138200003333333 0.9423633316666666
 O2 O 0.5634900033333333 0.7138200003333333 0.9423633316666666
 O2 O 0.4365099966666666 0.9528466663333333 0.7243033349999999
 O2 O 0.4365099966666666 0.9528466663333333 0.9423633316666666
 O2 O 0.5634900033333333 0.7138200003333333 0.7243033349999999
 O2 O 0.6031766633333333 0.880486667 0.7243033349999999
 O2 O 0.39682333666666664 0.7861799996666666
  0.9423633316666666
 O2 O 0.39682333666666664 0.7861799996666666
  0.7243033349999999
 O2 O 0.6031766633333333 0.880486667 0.9423633316666666
 O2 O 0.39682333666666664 0.880486667 0.9423633316666666
 O2 O 0.6031766633333333 0.7861799996666666 0.7243033349999999
 O2 O 0.6031766633333333 0.7861799996666666 0.9423633316666666
 O2 O 0.39682333666666664 0.880486667 0.7243033349999999
 O3 O 0.42577667033333333 0.6666666666666666
  0.7458233336666666
 O3 O 0.42577667033333333 1.0 0.7458233336666666
 O3 O 0.5742233296666667 0.6666666666666666 0.9208433329999999
 O3 O 0.5742233296666667 1.0 0.9208433329999999
 O3 O 0.5742233296666667 0.6666666666666666 0.7458233336666666
 O3 O 0.5742233296666667 1.0 0.7458233336666666
 O3 O 0.42577667033333333 0.6666666666666666
  0.9208433329999999
 O3 O 0.42577667033333333 1.0 0.9208433329999999
 O3 O 0.592443337 0.8333333333333333 0.7458233336666666
 O3 O 0.407556663 0.8333333333333333 0.9208433329999999
 O3 O 0.407556663 0.8333333333333333 0.7458233336666666
 O3 O 0.592443337 0.8333333333333333 0.9208433329999999
 O4 O 0.430979997 0.6983933323333333 0.8333333333333333
 O4 O 0.569020003 0.9682733343333332 0.8333333333333333
 O4 O 0.569020003 0.6983933323333333 0.8333333333333333
 O4 O 0.430979997 0.9682733343333332 0.8333333333333333
 O4 O 0.5976466636666666 0.8650599989999999 0.8333333333333333
 O4 O 0.4023533363333333 0.8016066676666667 0.8333333333333333
 O4 O 0.4023533363333333 0.8650599989999999 0.8333333333333333
 O4 O 0.5976466636666666 0.8016066676666667 0.8333333333333333
 O5 O 0.3708633333333333 0.6666666666666666 0.7454266646666666
 O5 O 0.3708633333333333 1.0 0.7454266646666666
 O5 O 0.6291366666666667 0.6666666666666666 0.921240002
 O5 O 0.6291366666666667 1.0 0.921240002
 O5 O 0.6291366666666667 0.6666666666666666 0.7454266646666666
 O5 O 0.6291366666666667 1.0 0.7454266646666666
 O5 O 0.3708633333333333 0.6666666666666666 0.921240002
 O5 O 0.3708633333333333 1.0 0.921240002
 O5 O 0.53753 0.8333333333333333 0.7454266646666666
 O5 O 0.46246999999999994 0.8333333333333333 0.921240002
 O5 O 0.46246999999999994 0.8333333333333333
  0.7454266646666666
 O5 O 0.53753 0.8333333333333333 0.921240002
 O6 O 0.36554666599999996 0.6981666659999999
  0.8333333333333333
 O6 O 0.634453334 0.9685000006666666 0.8333333333333333
 O6 O 0.634453334 0.6981666659999999 0.8333333333333333
 O6 O 0.36554666599999996 0.9685000006666666
  0.8333333333333333
 O6 O 0.5322133326666667 0.8648333326666666 0.8333333333333333
 O6 O 0.4677866673333333 0.8018333339999999 0.8333333333333333
 O6 O 0.4677866673333333 0.8648333326666666 0.8333333333333333
 O6 O 0.5322133326666667 0.8018333339999999 0.8333333333333333
 O7 O 0.35979333266666663 0.7135733316666666 0.724486669
 O7 O 0.6402066673333333 0.9530933349999999 0.9421799976666667
 O7 O 0.6402066673333333 0.9530933349999999 0.724486669
 O7 O 0.35979333266666663 0.7135733316666666
  0.9421799976666667
 O7 O 0.6402066673333333 0.7135733316666666 0.9421799976666667
 O7 O 0.35979333266666663 0.9530933349999999 0.724486669
 O7 O 0.35979333266666663 0.9530933349999999
  0.9421799976666667
 O7 O 0.6402066673333333 0.7135733316666666 0.724486669
 O7 O 0.5264599993333333 0.8802399983333333 0.724486669
 O7 O 0.4735400006666667 0.7864266683333333 0.9421799976666667
 O7 O 0.4735400006666667 0.7864266683333333 0.724486669
 O7 O 0.5264599993333333 0.8802399983333333 0.9421799976666667
 O7 O 0.4735400006666667 0.8802399983333333 0.9421799976666667
 O7 O 0.5264599993333333 0.7864266683333333 0.724486669
 O7 O 0.5264599993333333 0.7864266683333333 0.9421799976666667
 O7 O 0.4735400006666667 0.8802399983333333 0.724486669
 O8 O 0.41666666666666663 0.75 0.6666666666666666
 O8 O 0.41666666666666663 0.75 1.0
 O8 O 0.5833333333333333 0.9166666666666665 0.6666666666666666
 O8 O 0.5833333333333333 0.9166666666666665 1.0
 O8 O 0.5833333333333333 0.75 0.6666666666666666
 O8 O 0.5833333333333333 0.75 1.0
 O8 O 0.41666666666666663 0.9166666666666665
  0.6666666666666666
 O8 O 0.41666666666666663 0.9166666666666665 1.0
 O9 O 0.37454999966666663 0.7529233296666666
  0.6666666666666666
 O9 O 0.37454999966666663 0.7529233296666666 1.0
 O9 O 0.6254500003333333 0.9137433369999999 0.6666666666666666
 O9 O 0.6254500003333333 0.9137433369999999 1.0
 O9 O 0.6254500003333333 0.7529233296666666 0.6666666666666666
 O9 O 0.6254500003333333 0.7529233296666666 1.0
 O9 O 0.37454999966666663 0.9137433369999999
  0.6666666666666666
 O9 O 0.37454999966666663 0.9137433369999999 1.0
 O9 O 0.5412166663333333 0.9195899963333334 0.6666666666666666
 O9 O 0.5412166663333333 0.9195899963333334 1.0
 O9 O 0.4587833336666667 0.7470766703333334 0.6666666666666666
 O9 O 0.4587833336666667 0.7470766703333334 1.0
 O9 O 0.4587833336666667 0.9195899963333334 0.6666666666666666
 O9 O 0.4587833336666667 0.9195899963333334 1.0
 O9 O 0.5412166663333333 0.7470766703333334 0.6666666666666666
 O9 O 0.5412166663333333 0.7470766703333334 1.0
 O10 O 0.3333333333333333 0.7421000003333333
  0.6666666666666666
 O10 O 0.3333333333333333 0.7421000003333333 1.0
 O10 O 0.6666666666666666 0.7421000003333333
  0.6666666666666666
 O10 O 0.6666666666666666 0.7421000003333333 1.0
 O10 O 0.3333333333333333 0.9245666663333332
  0.6666666666666666
 O10 O 0.3333333333333333 0.9245666663333332 1.0
 O10 O 0.6666666666666666 0.9245666663333332
  0.6666666666666666
 O10 O 0.6666666666666666 0.9245666663333332 1.0
 O10 O 0.5 0.9087666669999999 0.6666666666666666
 O10 O 0.5 0.9087666669999999 1.0
 O10 O 0.5 0.7578999996666667 0.6666666666666666
 O10 O 0.5 0.7578999996666667 1.0
 O2 O 0.39682333666666664 0.7861799996666666
  0.6090299983333334
 O2 O 0.39682333666666664 0.7861799996666666
  1.0576366683333334
 O2 O 0.6031766633333333 0.880486667 0.6090299983333334
 O2 O 0.6031766633333333 0.880486667 1.0576366683333334
 O2 O 0.6031766633333333 0.7861799996666666 0.6090299983333334
 O2 O 0.6031766633333333 0.7861799996666666 1.0576366683333334
 O2 O 0.39682333666666664 0.880486667 0.6090299983333334
 O2 O 0.39682333666666664 0.880486667 1.0576366683333334
 O2 O 0.5634900033333333 0.9528466663333333 0.6090299983333334
 O2 O 0.5634900033333333 0.9528466663333333 1.0576366683333334
 O2 O 0.4365099966666666 0.7138200003333333 0.6090299983333334
 O2 O 0.4365099966666666 0.7138200003333333 1.0576366683333334
 O2 O 0.4365099966666666 0.9528466663333333 0.6090299983333334
 O2 O 0.4365099966666666 0.9528466663333333 1.0576366683333334
 O2 O 0.5634900033333333 0.7138200003333333 0.6090299983333334
 O2 O 0.5634900033333333 0.7138200003333333 1.0576366683333334
 O7 O 0.35979333266666663 0.7135733316666666
  0.6088466643333332
 O7 O 0.35979333266666663 0.7135733316666666
  1.0578200023333333
 O7 O 0.6402066673333333 0.9530933349999999 0.6088466643333332
 O7 O 0.6402066673333333 0.9530933349999999 1.0578200023333333
 O7 O 0.6402066673333333 0.7135733316666666 0.6088466643333332
 O7 O 0.6402066673333333 0.7135733316666666 1.0578200023333333
 O7 O 0.35979333266666663 0.9530933349999999
  0.6088466643333332
 O7 O 0.35979333266666663 0.9530933349999999
  1.0578200023333333
 O7 O 0.5264599993333333 0.8802399983333333 0.6088466643333332
 O7 O 0.5264599993333333 0.8802399983333333 1.0578200023333333
 O7 O 0.4735400006666667 0.7864266683333333 0.6088466643333332
 O7 O 0.4735400006666667 0.7864266683333333 1.0578200023333333
 O7 O 0.4735400006666667 0.8802399983333333 0.6088466643333332
 O7 O 0.4735400006666667 0.8802399983333333 1.0578200023333333
 O7 O 0.5264599993333333 0.7864266683333333 0.6088466643333332
 O7 O 0.5264599993333333 0.7864266683333333 1.0578200023333333
 Si1 Si 0.7563133339999999 0.695479999 0.7664466699999999
 Si1 Si 0.9103533326666666 0.9711866676666665
  0.9002199966666666
 Si1 Si 0.9103533326666666 0.9711866676666665
  0.7664466699999999
 Si1 Si 0.7563133339999999 0.695479999 0.9002199966666666
 Si1 Si 0.9103533326666666 0.695479999 0.9002199966666666
 Si1 Si 0.7563133339999999 0.9711866676666665
  0.7664466699999999
 Si1 Si 0.7563133339999999 0.9711866676666665
  0.9002199966666666
 Si1 Si 0.9103533326666666 0.695479999 0.7664466699999999
 Si1 Si 0.9229800006666666 0.8621466656666665
  0.7664466699999999
 Si1 Si 0.7436866659999999 0.804520001 0.9002199966666666
 Si1 Si 0.7436866659999999 0.804520001 0.7664466699999999
 Si1 Si 0.9229800006666666 0.8621466656666665
  0.9002199966666666
 Si1 Si 0.7436866659999999 0.8621466656666665
  0.9002199966666666
 Si1 Si 0.9229800006666666 0.804520001 0.7664466699999999
 Si1 Si 0.9229800006666666 0.804520001 0.9002199966666666
 Si1 Si 0.7436866659999999 0.8621466656666665
  0.7664466699999999
 Si2 Si 0.7069066663333332 0.6954333336666667
  0.7664433319999999
 Si2 Si 0.9597600003333333 0.971233333 0.9002233346666666
 Si2 Si 0.9597600003333333 0.971233333 0.7664433319999999
 Si2 Si 0.7069066663333332 0.6954333336666667
  0.9002233346666666
 Si2 Si 0.9597600003333333 0.6954333336666667
  0.9002233346666666
 Si2 Si 0.7069066663333332 0.971233333 0.7664433319999999
 Si2 Si 0.7069066663333332 0.971233333 0.9002233346666666
 Si2 Si 0.9597600003333333 0.6954333336666667
  0.7664433319999999
 Si2 Si 0.873573333 0.8621000003333332 0.7664433319999999
 Si2 Si 0.7930933336666666 0.8045666663333333
  0.9002233346666666
 Si2 Si 0.7930933336666666 0.8045666663333333
  0.7664433319999999
 Si2 Si 0.873573333 0.8621000003333332 0.9002233346666666
 Si2 Si 0.7930933336666666 0.8621000003333332
  0.9002233346666666
 Si2 Si 0.873573333 0.8045666663333333 0.7664433319999999
 Si2 Si 0.873573333 0.8045666663333333 0.9002233346666666
 Si2 Si 0.7930933336666666 0.8621000003333332
  0.7664433319999999
 Si3 Si 0.7298166653333333 0.7685933313333333
  0.6666666666666666
 Si3 Si 0.7298166653333333 0.7685933313333333 1.0
 Si3 Si 0.9368500013333332 0.8980733353333332
  0.6666666666666666
 Si3 Si 0.9368500013333332 0.8980733353333332 1.0
 Si3 Si 0.9368500013333332 0.7685933313333333
  0.6666666666666666
 Si3 Si 0.9368500013333332 0.7685933313333333 1.0
 Si3 Si 0.7298166653333333 0.8980733353333332
  0.6666666666666666
 Si3 Si 0.7298166653333333 0.8980733353333332 1.0
 Si3 Si 0.8964833319999999 0.935259998 0.6666666666666666
 Si3 Si 0.8964833319999999 0.935259998 1.0
 Si3 Si 0.7701833346666667 0.7314066686666667
  0.6666666666666666
 Si3 Si 0.7701833346666667 0.7314066686666667 1.0
 Si3 Si 0.7701833346666667 0.935259998 0.6666666666666666
 Si3 Si 0.7701833346666667 0.935259998 1.0
 Si3 Si 0.8964833319999999 0.7314066686666667
  0.6666666666666666
 Si3 Si 0.8964833319999999 0.7314066686666667 1.0
 Si4 Si 0.6904733329999999 0.7307266643333332
  0.6666666666666666
 Si4 Si 0.6904733329999999 0.7307266643333332 1.0
 Si4 Si 0.9761933336666666 0.9359400023333333
  0.6666666666666666
 Si4 Si 0.9761933336666666 0.9359400023333333 1.0
 Si4 Si 0.9761933336666666 0.7307266643333332
  0.6666666666666666
 Si4 Si 0.9761933336666666 0.7307266643333332 1.0
 Si4 Si 0.6904733329999999 0.9359400023333333
  0.6666666666666666
 Si4 Si 0.6904733329999999 0.9359400023333333 1.0
 Si4 Si 0.8571399996666667 0.897393331 0.6666666666666666
 Si4 Si 0.8571399996666667 0.897393331 1.0
 Si4 Si 0.8095266669999999 0.7692733356666666
  0.6666666666666666
 Si4 Si 0.8095266669999999 0.7692733356666666 1.0
 Si4 Si 0.8095266669999999 0.897393331 0.6666666666666666
 Si4 Si 0.8095266669999999 0.897393331 1.0
 Si4 Si 0.8571399996666667 0.7692733356666666
  0.6666666666666666
 Si4 Si 0.8571399996666667 0.7692733356666666 1.0
 O1 O 0.7316033343333332 0.703380001 0.7625466683333333
 O1 O 0.9350633323333333 0.9632866656666665 0.9041199983333332
 O1 O 0.9350633323333333 0.9632866656666665 0.7625466683333333
 O1 O 0.7316033343333332 0.703380001 0.9041199983333332
 O1 O 0.9350633323333333 0.703380001 0.9041199983333332
 O1 O 0.7316033343333332 0.9632866656666665 0.7625466683333333
 O1 O 0.7316033343333332 0.9632866656666665 0.9041199983333332
 O1 O 0.9350633323333333 0.703380001 0.7625466683333333
 O1 O 0.898270001 0.8700466676666667 0.7625466683333333
 O1 O 0.7683966656666666 0.796619999 0.9041199983333332
 O1 O 0.7683966656666666 0.796619999 0.7625466683333333
 O1 O 0.898270001 0.8700466676666667 0.9041199983333332
 O1 O 0.7683966656666666 0.8700466676666667 0.9041199983333332
 O1 O 0.898270001 0.796619999 0.7625466683333333
 O1 O 0.898270001 0.796619999 0.9041199983333332
 O1 O 0.7683966656666666 0.8700466676666667 0.7625466683333333
 O2 O 0.7698433299999999 0.7138200003333333 0.7243033349999999
 O2 O 0.8968233366666667 0.9528466663333333 0.9423633316666666
 O2 O 0.8968233366666667 0.9528466663333333 0.7243033349999999
 O2 O 0.7698433299999999 0.7138200003333333 0.9423633316666666
 O2 O 0.8968233366666667 0.7138200003333333 0.9423633316666666
 O2 O 0.7698433299999999 0.9528466663333333 0.7243033349999999
 O2 O 0.7698433299999999 0.9528466663333333 0.9423633316666666
 O2 O 0.8968233366666667 0.7138200003333333 0.7243033349999999
 O2 O 0.9365099966666666 0.880486667 0.7243033349999999
 O2 O 0.73015667 0.7861799996666666 0.9423633316666666
 O2 O 0.73015667 0.7861799996666666 0.7243033349999999
 O2 O 0.9365099966666666 0.880486667 0.9423633316666666
 O2 O 0.73015667 0.880486667 0.9423633316666666
 O2 O 0.9365099966666666 0.7861799996666666 0.7243033349999999
 O2 O 0.9365099966666666 0.7861799996666666 0.9423633316666666
 O2 O 0.73015667 0.880486667 0.7243033349999999
 O3 O 0.7591100036666667 0.6666666666666666 0.7458233336666666
 O3 O 0.7591100036666667 1.0 0.7458233336666666
 O3 O 0.907556663 0.6666666666666666 0.9208433329999999
 O3 O 0.907556663 1.0 0.9208433329999999
 O3 O 0.907556663 0.6666666666666666 0.7458233336666666
 O3 O 0.907556663 1.0 0.7458233336666666
 O3 O 0.7591100036666667 0.6666666666666666 0.9208433329999999
 O3 O 0.7591100036666667 1.0 0.9208433329999999
 O3 O 0.9257766703333332 0.8333333333333333 0.7458233336666666
 O3 O 0.7408899963333333 0.8333333333333333 0.9208433329999999
 O3 O 0.7408899963333333 0.8333333333333333 0.7458233336666666
 O3 O 0.9257766703333332 0.8333333333333333 0.9208433329999999
 O4 O 0.7643133303333334 0.6983933323333333 0.8333333333333333
 O4 O 0.9023533363333334 0.9682733343333332 0.8333333333333333
 O4 O 0.9023533363333334 0.6983933323333333 0.8333333333333333
 O4 O 0.7643133303333334 0.9682733343333332 0.8333333333333333
 O4 O 0.9309799969999999 0.8650599989999999 0.8333333333333333
 O4 O 0.7356866696666666 0.8016066676666667 0.8333333333333333
 O4 O 0.7356866696666666 0.8650599989999999 0.8333333333333333
 O4 O 0.9309799969999999 0.8016066676666667 0.8333333333333333
 O5 O 0.7041966666666666 0.6666666666666666 0.7454266646666666
 O5 O 0.7041966666666666 1.0 0.7454266646666666
 O5 O 0.9624699999999999 0.6666666666666666 0.921240002
 O5 O 0.9624699999999999 1.0 0.921240002
 O5 O 0.9624699999999999 0.6666666666666666 0.7454266646666666
 O5 O 0.9624699999999999 1.0 0.7454266646666666
 O5 O 0.7041966666666666 0.6666666666666666 0.921240002
 O5 O 0.7041966666666666 1.0 0.921240002
 O5 O 0.8708633333333333 0.8333333333333333 0.7454266646666666
 O5 O 0.7958033333333332 0.8333333333333333 0.921240002
 O5 O 0.7958033333333332 0.8333333333333333 0.7454266646666666
 O5 O 0.8708633333333333 0.8333333333333333 0.921240002
 O6 O 0.6988799993333332 0.6981666659999999 0.8333333333333333
 O6 O 0.9677866673333333 0.9685000006666666 0.8333333333333333
 O6 O 0.9677866673333333 0.6981666659999999 0.8333333333333333
 O6 O 0.6988799993333332 0.9685000006666666 0.8333333333333333
 O6 O 0.865546666 0.8648333326666666 0.8333333333333333
 O6 O 0.8011200006666666 0.8018333339999999 0.8333333333333333
 O6 O 0.8011200006666666 0.8648333326666666 0.8333333333333333
 O6 O 0.865546666 0.8018333339999999 0.8333333333333333
 O7 O 0.693126666 0.7135733316666666 0.724486669
 O7 O 0.9735400006666666 0.9530933349999999 0.9421799976666667
 O7 O 0.9735400006666666 0.9530933349999999 0.724486669
 O7 O 0.693126666 0.7135733316666666 0.9421799976666667
 O7 O 0.9735400006666666 0.7135733316666666 0.9421799976666667
 O7 O 0.693126666 0.9530933349999999 0.724486669
 O7 O 0.693126666 0.9530933349999999 0.9421799976666667
 O7 O 0.9735400006666666 0.7135733316666666 0.724486669
 O7 O 0.8597933326666667 0.8802399983333333 0.724486669
 O7 O 0.806873334 0.7864266683333333 0.9421799976666667
 O7 O 0.806873334 0.7864266683333333 0.724486669
 O7 O 0.8597933326666667 0.8802399983333333 0.9421799976666667
 O7 O 0.806873334 0.8802399983333333 0.9421799976666667
 O7 O 0.8597933326666667 0.7864266683333333 0.724486669
 O7 O 0.8597933326666667 0.7864266683333333 0.9421799976666667
 O7 O 0.806873334 0.8802399983333333 0.724486669
 O8 O 0.75 0.75 0.6666666666666666
 O8 O 0.75 0.75 1.0
 O8 O 0.9166666666666665 0.9166666666666665 0.6666666666666666
 O8 O 0.9166666666666665 0.9166666666666665 1.0
 O8 O 0.9166666666666665 0.75 0.6666666666666666
 O8 O 0.9166666666666665 0.75 1.0
 O8 O 0.75 0.9166666666666665 0.6666666666666666
 O8 O 0.75 0.9166666666666665 1.0
 O9 O 0.707883333 0.7529233296666666 0.6666666666666666
 O9 O 0.707883333 0.7529233296666666 1.0
 O9 O 0.9587833336666667 0.9137433369999999 0.6666666666666666
 O9 O 0.9587833336666667 0.9137433369999999 1.0
 O9 O 0.9587833336666667 0.7529233296666666 0.6666666666666666
 O9 O 0.9587833336666667 0.7529233296666666 1.0
 O9 O 0.707883333 0.9137433369999999 0.6666666666666666
 O9 O 0.707883333 0.9137433369999999 1.0
 O9 O 0.8745499996666666 0.9195899963333334 0.6666666666666666
 O9 O 0.8745499996666666 0.9195899963333334 1.0
 O9 O 0.7921166669999999 0.7470766703333334 0.6666666666666666
 O9 O 0.7921166669999999 0.7470766703333334 1.0
 O9 O 0.7921166669999999 0.9195899963333334 0.6666666666666666
 O9 O 0.7921166669999999 0.9195899963333334 1.0
 O9 O 0.8745499996666666 0.7470766703333334 0.6666666666666666
 O9 O 0.8745499996666666 0.7470766703333334 1.0
 O10 O 0.6666666666666666 0.7421000003333333
  0.6666666666666666
 O10 O 0.6666666666666666 0.7421000003333333 1.0
 O10 O 1.0 0.7421000003333333 0.6666666666666666
 O10 O 1.0 0.7421000003333333 1.0
 O10 O 0.6666666666666666 0.9245666663333332
  0.6666666666666666
 O10 O 0.6666666666666666 0.9245666663333332 1.0
 O10 O 1.0 0.9245666663333332 0.6666666666666666
 O10 O 1.0 0.9245666663333332 1.0
 O10 O 0.8333333333333333 0.9087666669999999
  0.6666666666666666
 O10 O 0.8333333333333333 0.9087666669999999 1.0
 O10 O 0.8333333333333333 0.7578999996666667
  0.6666666666666666
 O10 O 0.8333333333333333 0.7578999996666667 1.0
 O2 O 0.73015667 0.7861799996666666 0.6090299983333334
 O2 O 0.73015667 0.7861799996666666 1.0576366683333334
 O2 O 0.9365099966666666 0.880486667 0.6090299983333334
 O2 O 0.9365099966666666 0.880486667 1.0576366683333334
 O2 O 0.9365099966666666 0.7861799996666666 0.6090299983333334
 O2 O 0.9365099966666666 0.7861799996666666 1.0576366683333334
 O2 O 0.73015667 0.880486667 0.6090299983333334
 O2 O 0.73015667 0.880486667 1.0576366683333334
 O2 O 0.8968233366666667 0.9528466663333333 0.6090299983333334
 O2 O 0.8968233366666667 0.9528466663333333 1.0576366683333334
 O2 O 0.7698433299999999 0.7138200003333333 0.6090299983333334
 O2 O 0.7698433299999999 0.7138200003333333 1.0576366683333334
 O2 O 0.7698433299999999 0.9528466663333333 0.6090299983333334
 O2 O 0.7698433299999999 0.9528466663333333 1.0576366683333334
 O2 O 0.8968233366666667 0.7138200003333333 0.6090299983333334
 O2 O 0.8968233366666667 0.7138200003333333 1.0576366683333334
 O7 O 0.693126666 0.7135733316666666 0.6088466643333332
 O7 O 0.693126666 0.7135733316666666 1.0578200023333333
 O7 O 0.9735400006666666 0.9530933349999999 0.6088466643333332
 O7 O 0.9735400006666666 0.9530933349999999 1.0578200023333333
 O7 O 0.9735400006666666 0.7135733316666666 0.6088466643333332
 O7 O 0.9735400006666666 0.7135733316666666 1.0578200023333333
 O7 O 0.693126666 0.9530933349999999 0.6088466643333332
 O7 O 0.693126666 0.9530933349999999 1.0578200023333333
 O7 O 0.8597933326666667 0.8802399983333333 0.6088466643333332
 O7 O 0.8597933326666667 0.8802399983333333 1.0578200023333333
 O7 O 0.806873334 0.7864266683333333 0.6088466643333332
 O7 O 0.806873334 0.7864266683333333 1.0578200023333333
 O7 O 0.806873334 0.8802399983333333 0.6088466643333332
 O7 O 0.806873334 0.8802399983333333 1.0578200023333333
 O7 O 0.8597933326666667 0.7864266683333333 0.6088466643333332
 O7 O 0.8597933326666667 0.7864266683333333 1.0578200023333333