data_LTA
#**************************************************************************
#
# CIF taken from the IZA-SC Database of Zeolite Structures
# Ch. Baerlocher and L.B. McCusker
# Database of Zeolite Structures: http://www.iza-structure.org/databases/ 
#
# The atom coordinates and the cell parameters were optimized with DLS76
# assuming a pure SiO2 composition.
#
#**************************************************************************

_cell_length_a                  11.9190
_cell_length_b                  11.9190
_cell_length_c                  11.9190
_cell_angle_alpha               90.0000
_cell_angle_beta                90.0000
_cell_angle_gamma               90.0000

_symmetry_space_group_name_H-M     'P1'
_symmetry_Int_Tables_number         221
_symmetry_cell_setting             cubic

loop_
_symmetry_equiv_pos_as_xyz
x,y,z

loop_
_atom_site_label
_atom_site_type_symbol
_atom_site_fract_x
_atom_site_fract_y
_atom_site_fract_z
O1  O   0   0.212200001 0.5
O1  O   0   0.212200001 0.5
O1  O   0   0.787800014 0.5
O1  O   0   0.787800014 0.5
O1  O   0.5 0   0.212200001
O1  O   0.5 0   0.212200001
O1  O   0.5 0   0.787800014
O1  O   0.5 0   0.787800014
O1  O   0.212200001 0.5 0
O1  O   0.212200001 0.5 0
O1  O   0.787800014 0.5 0
O1  O   0.787800014 0.5 0
O1  O   0.212200001 0   0.5
O1  O   0.212200001 0   0.5
O1  O   0.787800014 0   0.5
O1  O   0.787800014 0   0.5
O1  O   0   0.5 0.787800014
O1  O   0   0.5 0.787800014
O1  O   0   0.5 0.212200001
O1  O   0   0.5 0.212200001
O1  O   0.5 0.212200001 0
O1  O   0.5 0.212200001 0
O1  O   0.5 0.787800014 0
O1  O   0.5 0.787800014 0
O2  O   0.110299997 0.110299997 0.338400006
O2  O   0.889699996 0.889699996 0.661599994
O2  O   0.889699996 0.889699996 0.338400006
O2  O   0.110299997 0.110299997 0.661599994
O2  O   0.889699996 0.110299997 0.661599994
O2  O   0.110299997 0.889699996 0.338400006
O2  O   0.110299997 0.889699996 0.661599994
O2  O   0.889699996 0.110299997 0.338400006
O2  O   0.338400006 0.110299997 0.110299997
O2  O   0.661599994 0.889699996 0.889699996
O2  O   0.338400006 0.889699996 0.889699996
O2  O   0.661599994 0.110299997 0.110299997
O2  O   0.661599994 0.889699996 0.110299997
O2  O   0.338400006 0.110299997 0.889699996
O2  O   0.661599994 0.110299997 0.889699996
O2  O   0.338400006 0.889699996 0.110299997
O2  O   0.110299997 0.338400006 0.110299997
O2  O   0.889699996 0.661599994 0.889699996
O2  O   0.889699996 0.338400006 0.889699996
O2  O   0.110299997 0.661599994 0.110299997
O2  O   0.110299997 0.661599994 0.889699996
O2  O   0.889699996 0.338400006 0.110299997
O2  O   0.889699996 0.661599994 0.110299997
O2  O   0.110299997 0.338400006 0.889699996
O3  O   0   0.296700001 0.296700001
O3  O   0   0.296700001 0.296700001
O3  O   0   0.703299999 0.703299999
O3  O   0   0.703299999 0.703299999
O3  O   0   0.703299999 0.296700001
O3  O   0   0.703299999 0.296700001
O3  O   0   0.296700001 0.703299999
O3  O   0   0.296700001 0.703299999
O3  O   0.296700001 0   0.296700001
O3  O   0.296700001 0   0.296700001
O3  O   0.703299999 0   0.703299999
O3  O   0.703299999 0   0.703299999
O3  O   0.296700001 0   0.703299999
O3  O   0.296700001 0   0.703299999
O3  O   0.703299999 0   0.296700001
O3  O   0.703299999 0   0.296700001
O3  O   0.296700001 0.296700001 0
O3  O   0.296700001 0.296700001 0
O3  O   0.703299999 0.703299999 0
O3  O   0.703299999 0.703299999 0
O3  O   0.703299999 0.296700001 0
O3  O   0.703299999 0.296700001 0
O3  O   0.296700001 0.703299999 0
O3  O   0.296700001 0.703299999 0
O2  O   0.889699996 0.110299997 0.338400006
O2  O   0.110299945 0.110299997 0.338400006
O2  O   0.889699996 0.889699996 0.661599994
O2  O   0.110299945 0.889699996 0.661599994
O2  O   0.889699996 0.889699996 0.338400006
O2  O   0.110299945 0.889699996 0.338400006
O2  O   0.889699996 0.110299997 0.661599994
O2  O   0.110299945 0.110299997 0.661599994
O2  O   0.338400006 0.889699996 0.110299997
O2  O   0.338400006 0.110299945 0.110299997
O2  O   0.661599994 0.889699996 0.889699996
O2  O   0.661599994 0.110299945 0.889699996
O2  O   0.338400006 0.889699996 0.889699996
O2  O   0.338400006 0.110299945 0.889699996
O2  O   0.661599994 0.889699996 0.110299997
O2  O   0.661599994 0.110299945 0.110299997
O2  O   0.110299997 0.338400006 0.889699996
O2  O   0.110299997 0.338400006 0.110299945
O2  O   0.889699996 0.661599994 0.889699996
O2  O   0.889699996 0.661599994 0.110299945
O2  O   0.889699996 0.338400006 0.889699996
O2  O   0.889699996 0.338400006 0.110299945
O2  O   0.110299997 0.661599994 0.889699996
O2  O   0.110299997 0.661599994 0.110299945
O2  O   0.110299997 0.889699996 0.661599994
O2  O   0.110299997 0.110299945 0.661599994
O2  O   0.889699996 0.889699996 0.338400006
O2  O   0.889699996 0.110299945 0.338400006
O2  O   0.889699996 0.889699996 0.661599994
O2  O   0.889699996 0.110299945 0.661599994
O2  O   0.110299997 0.889699996 0.338400006
O2  O   0.110299997 0.110299945 0.338400006
O2  O   0.889699996 0.338400006 0.889699996
O2  O   0.110299945 0.338400006 0.889699996
O2  O   0.889699996 0.661599994 0.110299997
O2  O   0.110299945 0.661599994 0.110299997
O2  O   0.889699996 0.338400006 0.110299997
O2  O   0.110299945 0.338400006 0.110299997
O2  O   0.889699996 0.661599994 0.889699996
O2  O   0.110299945 0.661599994 0.889699996
O2  O   0.338400006 0.110299997 0.889699996
O2  O   0.338400006 0.110299997 0.110299945
O2  O   0.661599994 0.889699996 0.889699996
O2  O   0.661599994 0.889699996 0.110299945
O2  O   0.338400006 0.889699996 0.889699996
O2  O   0.338400006 0.889699996 0.110299945
O2  O   0.661599994 0.110299997 0.889699996
O2  O   0.661599994 0.110299997 0.110299945
T1  Si  0   0.182300001 0.368400007
T1  Si  0   0.182300001 0.368400007
T1  Si  0   0.817700028 0.631600022
T1  Si  0   0.817700028 0.631600022
T1  Si  0   0.817700028 0.368400007
T1  Si  0   0.817700028 0.368400007
T1  Si  0   0.182300001 0.631600022
T1  Si  0   0.182300001 0.631600022
T1  Si  0.368400007 0   0.182300001
T1  Si  0.368400007 0   0.182300001
T1  Si  0.631600022 0   0.817700028
T1  Si  0.631600022 0   0.817700028
T1  Si  0.368400007 0   0.817700028
T1  Si  0.368400007 0   0.817700028
T1  Si  0.631600022 0   0.182300001
T1  Si  0.631600022 0   0.182300001
T1  Si  0.182300001 0.368400007 0
T1  Si  0.182300001 0.368400007 0
T1  Si  0.817700028 0.631600022 0
T1  Si  0.817700028 0.631600022 0
T1  Si  0.817700028 0.368400007 0
T1  Si  0.817700028 0.368400007 0
T1  Si  0.182300001 0.631600022 0
T1  Si  0.182300001 0.631600022 0
T1  Si  0.182300001 0   0.631600022
T1  Si  0.182300001 0   0.631600022
T1  Si  0.817700028 0   0.368400007
T1  Si  0.817700028 0   0.368400007
T1  Si  0.817700028 0   0.631600022
T1  Si  0.817700028 0   0.631600022
T1  Si  0.182300001 0   0.368400007
T1  Si  0.182300001 0   0.368400007
T1  Si  0   0.368400007 0.817700028
T1  Si  0   0.368400007 0.817700028
T1  Si  0   0.631600022 0.182300001
T1  Si  0   0.631600022 0.182300001
T1  Si  0   0.368400007 0.182300001
T1  Si  0   0.368400007 0.182300001
T1  Si  0   0.631600022 0.817700028
T1  Si  0   0.631600022 0.817700028
T1  Si  0.368400007 0.182300001 0
T1  Si  0.368400007 0.182300001 0
T1  Si  0.631600022 0.817700028 0
T1  Si  0.631600022 0.817700028 0
T1  Si  0.368400007 0.817700028 0
T1  Si  0.368400007 0.817700028 0
T1  Si  0.631600022 0.182300001 0
T1  Si  0.631600022 0.182300001 0