data_LTN
#**************************************************************************
#
# CIF taken from the IZA-SC Database of Zeolite Structures
# Ch. Baerlocher and L.B. McCusker
# Database of Zeolite Structures: http://www.iza-structure.org/databases/ 
#
# The atom coordinates and the cell parameters were optimized with DLS76
# assuming a pure SiO2 composition.
#
#**************************************************************************

_cell_length_a                  35.6220
_cell_length_b                  35.6220
_cell_length_c                  35.6220
_cell_angle_alpha               90.0000
_cell_angle_beta                90.0000
_cell_angle_gamma               90.0000

_symmetry_space_group_name_H-M     'F d -3 m'
_symmetry_Int_Tables_number         227
_space_group.IT_coordinate_system_code  '2'
_symmetry_cell_setting             cubic

loop_
_symmetry_equiv_pos_as_xyz
'+x,+y,+z'

loop_
_atom_site_label
_atom_site_type_symbol
_atom_site_fract_x
_atom_site_fract_y
_atom_site_fract_z
    O1  O   0.212899998 0.136000007 0.212899998
O1  O   0.787100002 0.863999993 0.787100002
O1  O   0.537100002 0.113999993 0.712899998
O1  O   0.462899998 0.886000007 0.287100002
O1  O   0.037100002 0.636000007 0.537100002
O1  O   0.962899998 0.363999993 0.462899998
O1  O   0.712899998 0.613999993 0.037100002
O1  O   0.287100002 0.386000007 0.962899998
O1  O   0.212899998 0.212899998 0.136000007
O1  O   0.787100002 0.787100002 0.863999993
O1  O   0.712899998 0.537100002 0.113999993
O1  O   0.287100002 0.462899998 0.886000007
O1  O   0.537100002 0.037100002 0.636000007
O1  O   0.462899998 0.962899998 0.363999993
O1  O   0.037100002 0.712899998 0.613999993
O1  O   0.962899998 0.287100002 0.386000007
O1  O   0.136000007 0.212899998 0.212899998
O1  O   0.863999993 0.787100002 0.787100002
O1  O   0.113999993 0.712899998 0.537100002
O1  O   0.886000007 0.287100002 0.462899998
O1  O   0.636000007 0.537100002 0.037100002
O1  O   0.363999993 0.462899998 0.962899998
O1  O   0.613999993 0.037100002 0.712899998
O1  O   0.386000007 0.962899998 0.287100002
O1  O   0.886000007 0.462899998 0.287100002
O1  O   0.113999993 0.537100002 0.712899998
O1  O   0.386000007 0.287100002 0.962899998
O1  O   0.613999993 0.712899998 0.037100002
O1  O   0.363999993 0.962899998 0.462899998
O1  O   0.636000007 0.037100002 0.537100002
O1  O   0.962899998 0.462899998 0.363999993
O1  O   0.037100002 0.537100002 0.636000007
O1  O   0.287100002 0.962899998 0.386000007
O1  O   0.712899998 0.037100002 0.613999993
O1  O   0.462899998 0.287100002 0.886000007
O1  O   0.537100002 0.712899998 0.113999993
O1  O   0.962899998 0.386000007 0.287100002
O1  O   0.037100002 0.613999993 0.712899998
O1  O   0.462899998 0.363999993 0.962899998
O1  O   0.537100002 0.636000007 0.037100002
O1  O   0.287100002 0.886000007 0.462899998
O1  O   0.712899998 0.113999993 0.537100002
O1  O   0.212899998 0.636000007 0.712899998
O1  O   0.787100002 0.363999993 0.287100002
O1  O   0.537100002 0.613999993 0.212899998
O1  O   0.462899998 0.386000007 0.787100002
O1  O   0.037100002 0.136000007 0.037100002
O1  O   0.962899998 0.863999993 0.962899998
O1  O   0.212899998 0.712899998 0.636000007
O1  O   0.787100002 0.287100002 0.363999993
O1  O   0.537100002 0.537100002 0.136000007
O1  O   0.462899998 0.462899998 0.863999993
O1  O   0.037100002 0.212899998 0.113999993
O1  O   0.962899998 0.787100002 0.886000007
O1  O   0.136000007 0.712899998 0.712899998
O1  O   0.863999993 0.287100002 0.287100002
O1  O   0.113999993 0.212899998 0.037100002
O1  O   0.886000007 0.787100002 0.962899998
O1  O   0.613999993 0.537100002 0.212899998
O1  O   0.386000007 0.462899998 0.787100002
O1  O   0.886000007 0.962899998 0.787100002
O1  O   0.113999993 0.037100002 0.212899998
O1  O   0.386000007 0.787100002 0.462899998
O1  O   0.613999993 0.212899998 0.537100002
O1  O   0.962899998 0.962899998 0.863999993
O1  O   0.037100002 0.037100002 0.136000007
O1  O   0.462899998 0.787100002 0.386000007
O1  O   0.537100002 0.212899998 0.613999993
O1  O   0.962899998 0.886000007 0.787100002
O1  O   0.037100002 0.113999993 0.212899998
O1  O   0.462899998 0.863999993 0.462899998
O1  O   0.537100002 0.136000007 0.537100002
O1  O   0.712899998 0.136000007 0.712899998
O1  O   0.287100002 0.863999993 0.287100002
O1  O   0.212899998 0.613999993 0.537100002
O1  O   0.787100002 0.386000007 0.462899998
O1  O   0.712899998 0.212899998 0.636000007
O1  O   0.287100002 0.787100002 0.363999993
O1  O   0.212899998 0.537100002 0.613999993
O1  O   0.787100002 0.462899998 0.386000007
O1  O   0.636000007 0.212899998 0.712899998
O1  O   0.363999993 0.787100002 0.287100002
O1  O   0.136000007 0.537100002 0.537100002
O1  O   0.863999993 0.462899998 0.462899998
O1  O   0.863999993 0.962899998 0.962899998
O1  O   0.136000007 0.037100002 0.037100002
O1  O   0.787100002 0.962899998 0.886000007
O1  O   0.212899998 0.037100002 0.113999993
O1  O   0.787100002 0.886000007 0.962899998
O1  O   0.212899998 0.113999993 0.037100002
O1  O   0.712899998 0.636000007 0.212899998
O1  O   0.287100002 0.363999993 0.787100002
O1  O   0.712899998 0.712899998 0.136000007
O1  O   0.287100002 0.287100002 0.863999993
O1  O   0.636000007 0.712899998 0.212899998
O1  O   0.363999993 0.287100002 0.787100002
O2  O   0.159799993 0.0902  0.236000001
O2  O   0.840200007 0.9098  0.763999999
O2  O   0.590200007 0.1598  0.736000001
O2  O   0.409799993 0.8402  0.263999999
O2  O   0.090200007 0.5902  0.513999999
O2  O   0.909799993 0.4098  0.486000001
O2  O   0.659799993 0.6598  0.013999999
O2  O   0.340200007 0.3402  0.986000001
O2  O   0.236000001 0.159799993 0.0902
O2  O   0.763999999 0.840200007 0.9098
O2  O   0.736000001 0.590200007 0.1598
O2  O   0.263999999 0.409799993 0.8402
O2  O   0.513999999 0.090200007 0.5902
O2  O   0.486000001 0.909799993 0.4098
O2  O   0.013999999 0.659799993 0.6598
O2  O   0.986000001 0.340200007 0.3402
O2  O   0.0902  0.236000001 0.159799993
O2  O   0.9098  0.763999999 0.840200007
O2  O   0.1598  0.736000001 0.590200007
O2  O   0.8402  0.263999999 0.409799993
O2  O   0.5902  0.513999999 0.090200007
O2  O   0.4098  0.486000001 0.909799993
O2  O   0.6598  0.013999999 0.659799993
O2  O   0.3402  0.986000001 0.340200007
O2  O   0.8402  0.409799993 0.263999999
O2  O   0.1598  0.590200007 0.736000001
O2  O   0.9098  0.840200007 0.763999999
O2  O   0.0902  0.159799993 0.236000001
O2  O   0.4098  0.909799993 0.486000001
O2  O   0.5902  0.090200007 0.513999999
O2  O   0.909799993 0.486000001 0.4098
O2  O   0.090200007 0.513999999 0.5902
O2  O   0.840200007 0.763999999 0.9098
O2  O   0.159799993 0.236000001 0.0902
O2  O   0.409799993 0.263999999 0.8402
O2  O   0.590200007 0.736000001 0.1598
O2  O   0.486000001 0.4098  0.909799993
O2  O   0.513999999 0.5902  0.090200007
O2  O   0.263999999 0.8402  0.409799993
O2  O   0.736000001 0.1598  0.590200007
O2  O   0.763999999 0.9098  0.840200007
O2  O   0.236000001 0.0902  0.159799993
O2  O   0.590200007 0.6598  0.236000001
O2  O   0.409799993 0.3402  0.763999999
O2  O   0.090200007 0.0902  0.013999999
O2  O   0.909799993 0.9098  0.986000001
O2  O   0.659799993 0.1598  0.513999999
O2  O   0.340200007 0.8402  0.486000001
O2  O   0.236000001 0.659799993 0.5902
O2  O   0.763999999 0.340200007 0.4098
O2  O   0.736000001 0.090200007 0.6598
O2  O   0.263999999 0.909799993 0.3402
O2  O   0.013999999 0.159799993 0.1598
O2  O   0.986000001 0.840200007 0.8402
O2  O   0.0902  0.736000001 0.659799993
O2  O   0.9098  0.263999999 0.340200007
O2  O   0.5902  0.013999999 0.590200007
O2  O   0.4098  0.986000001 0.409799993
O2  O   0.6598  0.513999999 0.159799993
O2  O   0.3402  0.486000001 0.840200007
O2  O   0.9098  0.340200007 0.263999999
O2  O   0.0902  0.659799993 0.736000001
O2  O   0.4098  0.409799993 0.986000001
O2  O   0.5902  0.590200007 0.013999999
O2  O   0.909799993 0.986000001 0.9098
O2  O   0.090200007 0.013999999 0.0902
O2  O   0.409799993 0.763999999 0.3402
O2  O   0.590200007 0.236000001 0.6598
O2  O   0.263999999 0.3402  0.909799993
O2  O   0.736000001 0.6598  0.090200007
O2  O   0.763999999 0.4098  0.340200007
O2  O   0.236000001 0.5902  0.659799993
O2  O   0.659799993 0.0902  0.736000001
O2  O   0.340200007 0.9098  0.263999999
O2  O   0.159799993 0.6598  0.513999999
O2  O   0.840200007 0.3402  0.486000001
O2  O   0.013999999 0.090200007 0.0902
O2  O   0.986000001 0.909799993 0.9098
O2  O   0.513999999 0.659799993 0.1598
O2  O   0.486000001 0.340200007 0.8402
O2  O   0.6598  0.736000001 0.090200007
O2  O   0.3402  0.263999999 0.909799993
O2  O   0.1598  0.013999999 0.159799993
O2  O   0.8402  0.986000001 0.840200007
O2  O   0.3402  0.409799993 0.763999999
O2  O   0.6598  0.590200007 0.236000001
O2  O   0.340200007 0.763999999 0.4098
O2  O   0.659799993 0.236000001 0.5902
O2  O   0.986000001 0.4098  0.409799993
O2  O   0.013999999 0.5902  0.590200007
O2  O   0.159799993 0.1598  0.013999999
O2  O   0.840200007 0.8402  0.986000001
O2  O   0.513999999 0.159799993 0.6598
O2  O   0.486000001 0.840200007 0.3402
O2  O   0.1598  0.513999999 0.659799993
O2  O   0.8402  0.486000001 0.340200007
O3  O   0.211799994 0.113300003 0.283100009
O3  O   0.788200006 0.886699997 0.716899991
O3  O   0.538200006 0.136699997 0.783100009
O3  O   0.461799994 0.863300003 0.216899991
O3  O   0.038200006 0.613300003 0.466899991
O3  O   0.961799994 0.386699997 0.533100009
O3  O   0.711799994 0.636699997 0.966899991
O3  O   0.288200006 0.363300003 0.033100009
O3  O   0.283100009 0.211799994 0.113300003
O3  O   0.716899991 0.788200006 0.886699997
O3  O   0.783100009 0.538200006 0.136699997
O3  O   0.216899991 0.461799994 0.863300003
O3  O   0.466899991 0.038200006 0.613300003
O3  O   0.533100009 0.961799994 0.386699997
O3  O   0.966899991 0.711799994 0.636699997
O3  O   0.033100009 0.288200006 0.363300003
O3  O   0.113300003 0.283100009 0.211799994
O3  O   0.886699997 0.716899991 0.788200006
O3  O   0.136699997 0.783100009 0.538200006
O3  O   0.863300003 0.216899991 0.461799994
O3  O   0.613300003 0.466899991 0.038200006
O3  O   0.386699997 0.533100009 0.961799994
O3  O   0.636699997 0.966899991 0.711799994
O3  O   0.363300003 0.033100009 0.288200006
O3  O   0.863300003 0.461799994 0.216899991
O3  O   0.136699997 0.538200006 0.783100009
O3  O   0.886699997 0.788200006 0.716899991
O3  O   0.113300003 0.211799994 0.283100009
O3  O   0.363300003 0.288200006 0.033100009
O3  O   0.636699997 0.711799994 0.966899991
O3  O   0.386699997 0.961799994 0.533100009
O3  O   0.613300003 0.038200006 0.466899991
O3  O   0.961799994 0.533100009 0.386699997
O3  O   0.038200006 0.466899991 0.613300003
O3  O   0.288200006 0.033100009 0.363300003
O3  O   0.711799994 0.966899991 0.636699997
O3  O   0.788200006 0.716899991 0.886699997
O3  O   0.211799994 0.283100009 0.113300003
O3  O   0.461799994 0.216899991 0.863300003
O3  O   0.538200006 0.783100009 0.136699997
O3  O   0.033100009 0.363300003 0.288200006
O3  O   0.966899991 0.636699997 0.711799994
O3  O   0.533100009 0.386699997 0.961799994
O3  O   0.466899991 0.613300003 0.038200006
O3  O   0.216899991 0.863300003 0.461799994
O3  O   0.783100009 0.136699997 0.538200006
O3  O   0.716899991 0.886699997 0.788200006
O3  O   0.283100009 0.113300003 0.211799994
O3  O   0.211799994 0.613300003 0.783100009
O3  O   0.788200006 0.386699997 0.216899991
O3  O   0.538200006 0.636699997 0.283100009
O3  O   0.461799994 0.363300003 0.716899991
O3  O   0.038200006 0.113300003 0.966899991
O3  O   0.961799994 0.886699997 0.033100009
O3  O   0.711799994 0.136699997 0.466899991
O3  O   0.288200006 0.863300003 0.533100009
O3  O   0.283100009 0.711799994 0.613300003
O3  O   0.716899991 0.288200006 0.386699997
O3  O   0.783100009 0.038200006 0.636699997
O3  O   0.216899991 0.961799994 0.363300003
O3  O   0.466899991 0.538200006 0.113300003
O3  O   0.533100009 0.461799994 0.886699997
O3  O   0.966899991 0.211799994 0.136699997
O3  O   0.033100009 0.788200006 0.863300003
O3  O   0.113300003 0.783100009 0.711799994
O3  O   0.886699997 0.216899991 0.288200006
O3  O   0.136699997 0.283100009 0.038200006
O3  O   0.863300003 0.716899991 0.961799994
O3  O   0.613300003 0.966899991 0.538200006
O3  O   0.386699997 0.033100009 0.461799994
O3  O   0.636699997 0.466899991 0.211799994
O3  O   0.363300003 0.533100009 0.788200006
O3  O   0.863300003 0.961799994 0.716899991
O3  O   0.136699997 0.038200006 0.283100009
O3  O   0.886699997 0.288200006 0.216899991
O3  O   0.113300003 0.711799994 0.783100009
O3  O   0.363300003 0.788200006 0.533100009
O3  O   0.636699997 0.211799994 0.466899991
O3  O   0.386699997 0.461799994 0.033100009
O3  O   0.613300003 0.538200006 0.966899991
O3  O   0.961799994 0.033100009 0.886699997
O3  O   0.038200006 0.966899991 0.113300003
O3  O   0.288200006 0.533100009 0.863300003
O3  O   0.711799994 0.466899991 0.136699997
O3  O   0.788200006 0.216899991 0.386699997
O3  O   0.211799994 0.783100009 0.613300003
O3  O   0.461799994 0.716899991 0.363300003
O3  O   0.538200006 0.283100009 0.636699997
O3  O   0.033100009 0.863300003 0.788200006
O3  O   0.966899991 0.136699997 0.211799994
O3  O   0.533100009 0.886699997 0.461799994
O3  O   0.466899991 0.113300003 0.538200006
O3  O   0.216899991 0.363300003 0.961799994
O3  O   0.783100009 0.636699997 0.038200006
O3  O   0.716899991 0.386699997 0.288200006
O3  O   0.283100009 0.613300003 0.711799994
O3  O   0.711799994 0.113300003 0.783100009
O3  O   0.288200006 0.886699997 0.216899991
O3  O   0.038200006 0.136699997 0.283100009
O3  O   0.961799994 0.863300003 0.716899991
O3  O   0.538200006 0.613300003 0.966899991
O3  O   0.461799994 0.386699997 0.033100009
O3  O   0.211799994 0.636699997 0.466899991
O3  O   0.788200006 0.363300003 0.533100009
O3  O   0.783100009 0.211799994 0.613300003
O3  O   0.216899991 0.788200006 0.386699997
O3  O   0.283100009 0.538200006 0.636699997
O3  O   0.716899991 0.461799994 0.363300003
O3  O   0.966899991 0.038200006 0.113300003
O3  O   0.033100009 0.961799994 0.886699997
O3  O   0.466899991 0.711799994 0.136699997
O3  O   0.533100009 0.288200006 0.863300003
O3  O   0.613300003 0.283100009 0.711799994
O3  O   0.386699997 0.716899991 0.288200006
O3  O   0.636699997 0.783100009 0.038200006
O3  O   0.363300003 0.216899991 0.961799994
O3  O   0.113300003 0.466899991 0.538200006
O3  O   0.886699997 0.533100009 0.461799994
O3  O   0.136699997 0.966899991 0.211799994
O3  O   0.863300003 0.033100009 0.788200006
O3  O   0.363300003 0.461799994 0.716899991
O3  O   0.636699997 0.538200006 0.283100009
O3  O   0.386699997 0.788200006 0.216899991
O3  O   0.613300003 0.211799994 0.783100009
O3  O   0.863300003 0.288200006 0.533100009
O3  O   0.136699997 0.711799994 0.466899991
O3  O   0.886699997 0.961799994 0.033100009
O3  O   0.113300003 0.038200006 0.966899991
O3  O   0.461799994 0.533100009 0.886699997
O3  O   0.538200006 0.466899991 0.113300003
O3  O   0.788200006 0.033100009 0.863300003
O3  O   0.211799994 0.966899991 0.136699997
O3  O   0.288200006 0.716899991 0.386699997
O3  O   0.711799994 0.283100009 0.613300003
O3  O   0.961799994 0.216899991 0.363300003
O3  O   0.038200006 0.783100009 0.636699997
O3  O   0.533100009 0.363300003 0.788200006
O3  O   0.466899991 0.636699997 0.211799994
O3  O   0.033100009 0.386699997 0.461799994
O3  O   0.966899991 0.613300003 0.538200006
O3  O   0.716899991 0.863300003 0.961799994
O3  O   0.283100009 0.136699997 0.038200006
O3  O   0.216899991 0.886699997 0.288200006
O3  O   0.783100009 0.113300003 0.711799994
O3  O   0.711799994 0.613300003 0.283100009
O3  O   0.288200006 0.386699997 0.716899991
O3  O   0.038200006 0.636699997 0.783100009
O3  O   0.961799994 0.363300003 0.216899991
O3  O   0.538200006 0.113300003 0.466899991
O3  O   0.461799994 0.886699997 0.533100009
O3  O   0.211799994 0.136699997 0.966899991
O3  O   0.788200006 0.863300003 0.033100009
O3  O   0.783100009 0.711799994 0.113300003
O3  O   0.216899991 0.288200006 0.886699997
O3  O   0.283100009 0.038200006 0.136699997
O3  O   0.716899991 0.961799994 0.863300003
O3  O   0.966899991 0.538200006 0.613300003
O3  O   0.033100009 0.461799994 0.386699997
O3  O   0.466899991 0.211799994 0.636699997
O3  O   0.533100009 0.788200006 0.363300003
O3  O   0.613300003 0.783100009 0.211799994
O3  O   0.386699997 0.216899991 0.788200006
O3  O   0.636699997 0.283100009 0.538200006
O3  O   0.363300003 0.716899991 0.461799994
O3  O   0.113300003 0.966899991 0.038200006
O3  O   0.886699997 0.033100009 0.961799994
O3  O   0.136699997 0.466899991 0.711799994
O3  O   0.863300003 0.533100009 0.288200006
O3  O   0.363300003 0.961799994 0.216899991
O3  O   0.636699997 0.038200006 0.783100009
O3  O   0.386699997 0.288200006 0.716899991
O3  O   0.613300003 0.711799994 0.283100009
O3  O   0.863300003 0.788200006 0.033100009
O3  O   0.136699997 0.211799994 0.966899991
O3  O   0.886699997 0.461799994 0.533100009
O3  O   0.113300003 0.538200006 0.466899991
O3  O   0.461799994 0.033100009 0.386699997
O3  O   0.538200006 0.966899991 0.613300003
O3  O   0.788200006 0.533100009 0.363300003
O3  O   0.211799994 0.466899991 0.636699997
O3  O   0.288200006 0.216899991 0.886699997
O3  O   0.711799994 0.783100009 0.113300003
O3  O   0.961799994 0.716899991 0.863300003
O3  O   0.038200006 0.283100009 0.136699997
O3  O   0.533100009 0.863300003 0.288200006
O3  O   0.466899991 0.136699997 0.711799994
O3  O   0.033100009 0.886699997 0.961799994
O3  O   0.966899991 0.113300003 0.038200006
O3  O   0.716899991 0.363300003 0.461799994
O3  O   0.283100009 0.636699997 0.538200006
O3  O   0.216899991 0.386699997 0.788200006
O3  O   0.783100009 0.613300003 0.211799994
O4  O   0.160400003 0.160400003 0.258700013
O4  O   0.839599997 0.839599997 0.741299987
O4  O   0.589599997 0.089599997 0.758700013
O4  O   0.410400003 0.910400003 0.241299987
O4  O   0.089599997 0.660400003 0.491299987
O4  O   0.910400003 0.339599997 0.508700013
O4  O   0.660400003 0.589599997 0.991299987
O4  O   0.339599997 0.410400003 0.008700013
O4  O   0.258700013 0.160400003 0.160400003
O4  O   0.741299987 0.839599997 0.839599997
O4  O   0.758700013 0.589599997 0.089599997
O4  O   0.241299987 0.410400003 0.910400003
O4  O   0.491299987 0.089599997 0.660400003
O4  O   0.508700013 0.910400003 0.339599997
O4  O   0.991299987 0.660400003 0.589599997
O4  O   0.008700013 0.339599997 0.410400003
O4  O   0.160400003 0.258700013 0.160400003
O4  O   0.839599997 0.741299987 0.839599997
O4  O   0.089599997 0.758700013 0.589599997
O4  O   0.910400003 0.241299987 0.410400003
O4  O   0.660400003 0.491299987 0.089599997
O4  O   0.339599997 0.508700013 0.910400003
O4  O   0.589599997 0.991299987 0.660400003
O4  O   0.410400003 0.008700013 0.339599997
O4  O   0.910400003 0.410400003 0.241299987
O4  O   0.089599997 0.589599997 0.758700013
O4  O   0.410400003 0.339599997 0.008700013
O4  O   0.589599997 0.660400003 0.991299987
O4  O   0.339599997 0.910400003 0.508700013
O4  O   0.660400003 0.089599997 0.491299987
O4  O   0.910400003 0.508700013 0.339599997
O4  O   0.089599997 0.491299987 0.660400003
O4  O   0.339599997 0.008700013 0.410400003
O4  O   0.660400003 0.991299987 0.589599997
O4  O   0.410400003 0.241299987 0.910400003
O4  O   0.589599997 0.758700013 0.089599997
O4  O   0.008700013 0.410400003 0.339599997
O4  O   0.991299987 0.589599997 0.660400003
O4  O   0.508700013 0.339599997 0.910400003
O4  O   0.491299987 0.660400003 0.089599997
O4  O   0.241299987 0.910400003 0.410400003
O4  O   0.758700013 0.089599997 0.589599997
O4  O   0.160400003 0.660400003 0.758700013
O4  O   0.839599997 0.339599997 0.241299987
O4  O   0.589599997 0.589599997 0.258700013
O4  O   0.410400003 0.410400003 0.741299987
O4  O   0.089599997 0.160400003 0.991299987
O4  O   0.910400003 0.839599997 0.008700013
O4  O   0.258700013 0.660400003 0.660400003
O4  O   0.741299987 0.339599997 0.339599997
O4  O   0.491299987 0.589599997 0.160400003
O4  O   0.508700013 0.410400003 0.839599997
O4  O   0.991299987 0.160400003 0.089599997
O4  O   0.008700013 0.839599997 0.910400003
O4  O   0.160400003 0.758700013 0.660400003
O4  O   0.839599997 0.241299987 0.339599997
O4  O   0.089599997 0.258700013 0.089599997
O4  O   0.910400003 0.741299987 0.910400003
O4  O   0.589599997 0.491299987 0.160400003
O4  O   0.410400003 0.508700013 0.839599997
O4  O   0.910400003 0.910400003 0.741299987
O4  O   0.089599997 0.089599997 0.258700013
O4  O   0.410400003 0.839599997 0.508700013
O4  O   0.589599997 0.160400003 0.491299987
O4  O   0.910400003 0.008700013 0.839599997
O4  O   0.089599997 0.991299987 0.160400003
O4  O   0.410400003 0.741299987 0.410400003
O4  O   0.589599997 0.258700013 0.589599997
O4  O   0.008700013 0.910400003 0.839599997
O4  O   0.991299987 0.089599997 0.160400003
O4  O   0.508700013 0.839599997 0.410400003
O4  O   0.491299987 0.160400003 0.589599997
O4  O   0.660400003 0.160400003 0.758700013
O4  O   0.339599997 0.839599997 0.241299987
O4  O   0.160400003 0.589599997 0.491299987
O4  O   0.839599997 0.410400003 0.508700013
O4  O   0.758700013 0.160400003 0.660400003
O4  O   0.241299987 0.839599997 0.339599997
O4  O   0.258700013 0.589599997 0.589599997
O4  O   0.741299987 0.410400003 0.410400003
O4  O   0.660400003 0.258700013 0.660400003
O4  O   0.339599997 0.741299987 0.339599997
O4  O   0.160400003 0.491299987 0.589599997
O4  O   0.839599997 0.508700013 0.410400003
O4  O   0.839599997 0.910400003 0.008700013
O4  O   0.160400003 0.089599997 0.991299987
O4  O   0.839599997 0.008700013 0.910400003
O4  O   0.160400003 0.991299987 0.089599997
O4  O   0.741299987 0.910400003 0.910400003
O4  O   0.258700013 0.089599997 0.089599997
O4  O   0.660400003 0.660400003 0.258700013
O4  O   0.339599997 0.339599997 0.741299987
O4  O   0.758700013 0.660400003 0.160400003
O4  O   0.241299987 0.339599997 0.839599997
O4  O   0.660400003 0.758700013 0.160400003
O4  O   0.339599997 0.241299987 0.839599997
O5  O   0.342999995 0.093000002 0.25
O5  O   0.657000005 0.906999998 0.75
O5  O   0.407000005 0.156999998 0.75
O5  O   0.592999995 0.843000002 0.25
O5  O   0.907000005 0.593000002 0.5
O5  O   0.092999995 0.406999998 0.5
O5  O   0.842999995 0.656999998 0
O5  O   0.842999995 0.656999998 1
O5  O   0.157000005 0.343000002 0
O5  O   0.157000005 0.343000002 1
O5  O   0.25    0.342999995 0.093000002
O5  O   0.75    0.657000005 0.906999998
O5  O   0.75    0.407000005 0.156999998
O5  O   0.25    0.592999995 0.843000002
O5  O   0.5 0.907000005 0.593000002
O5  O   0.5 0.092999995 0.406999998
O5  O   0   0.842999995 0.656999998
O5  O   1   0.842999995 0.656999998
O5  O   0   0.157000005 0.343000002
O5  O   1   0.157000005 0.343000002
O5  O   0.093000002 0.25    0.342999995
O5  O   0.906999998 0.75    0.657000005
O5  O   0.156999998 0.75    0.407000005
O5  O   0.843000002 0.25    0.592999995
O5  O   0.593000002 0.5 0.907000005
O5  O   0.406999998 0.5 0.092999995
O5  O   0.656999998 0   0.842999995
O5  O   0.656999998 1   0.842999995
O5  O   0.343000002 0   0.157000005
O5  O   0.343000002 1   0.157000005
O5  O   0.843000002 0.592999995 0.25
O5  O   0.156999998 0.407000005 0.75
O5  O   0.906999998 0.657000005 0.75
O5  O   0.093000002 0.342999995 0.25
O5  O   0.343000002 0.157000005 0
O5  O   0.343000002 0.157000005 1
O5  O   0.656999998 0.842999995 0
O5  O   0.656999998 0.842999995 1
O5  O   0.406999998 0.092999995 0.5
O5  O   0.593000002 0.907000005 0.5
O5  O   0.092999995 0.5 0.406999998
O5  O   0.907000005 0.5 0.593000002
O5  O   0.157000005 0   0.343000002
O5  O   0.157000005 1   0.343000002
O5  O   0.842999995 0   0.656999998
O5  O   0.842999995 1   0.656999998
O5  O   0.657000005 0.75    0.906999998
O5  O   0.342999995 0.25    0.093000002
O5  O   0.592999995 0.25    0.843000002
O5  O   0.407000005 0.75    0.156999998
O5  O   0   0.343000002 0.157000005
O5  O   1   0.343000002 0.157000005
O5  O   0   0.656999998 0.842999995
O5  O   1   0.656999998 0.842999995
O5  O   0.5 0.406999998 0.092999995
O5  O   0.5 0.593000002 0.907000005
O5  O   0.25    0.843000002 0.592999995
O5  O   0.75    0.156999998 0.407000005
O5  O   0.75    0.906999998 0.657000005
O5  O   0.25    0.093000002 0.342999995
O5  O   0.342999995 0.593000002 0.75
O5  O   0.657000005 0.406999998 0.25
O5  O   0.407000005 0.656999998 0.25
O5  O   0.592999995 0.343000002 0.75
O5  O   0.907000005 0.093000002 0
O5  O   0.907000005 0.093000002 1
O5  O   0.092999995 0.906999998 0
O5  O   0.092999995 0.906999998 1
O5  O   0.842999995 0.156999998 0.5
O5  O   0.157000005 0.843000002 0.5
O5  O   0.093000002 0.75    0.842999995
O5  O   0.906999998 0.25    0.157000005
O5  O   0.156999998 0.25    0.907000005
O5  O   0.843000002 0.75    0.092999995
O5  O   0.593000002 0   0.407000005
O5  O   0.593000002 1   0.407000005
O5  O   0.406999998 0   0.592999995
O5  O   0.406999998 1   0.592999995
O5  O   0.656999998 0.5 0.342999995
O5  O   0.343000002 0.5 0.657000005
O5  O   0.843000002 0.092999995 0.75
O5  O   0.156999998 0.907000005 0.25
O5  O   0.906999998 0.157000005 0.25
O5  O   0.093000002 0.842999995 0.75
O5  O   0.343000002 0.657000005 0.5
O5  O   0.656999998 0.342999995 0.5
O5  O   0.406999998 0.592999995 0
O5  O   0.406999998 0.592999995 1
O5  O   0.593000002 0.407000005 0
O5  O   0.593000002 0.407000005 1
O5  O   0.092999995 0   0.906999998
O5  O   0.092999995 1   0.906999998
O5  O   0.907000005 0   0.093000002
O5  O   0.907000005 1   0.093000002
O5  O   0.157000005 0.5 0.843000002
O5  O   0.842999995 0.5 0.156999998
O5  O   0.657000005 0.25    0.406999998
O5  O   0.342999995 0.75    0.593000002
O5  O   0.592999995 0.75    0.343000002
O5  O   0.407000005 0.25    0.656999998
O5  O   0.75    0.342999995 0.593000002
O5  O   0.25    0.657000005 0.406999998
O5  O   0.25    0.407000005 0.656999998
O5  O   0.75    0.592999995 0.343000002
O5  O   0   0.907000005 0.093000002
O5  O   1   0.907000005 0.093000002
O5  O   0   0.092999995 0.906999998
O5  O   1   0.092999995 0.906999998
O5  O   0.5 0.842999995 0.156999998
O5  O   0.5 0.157000005 0.843000002
O5  O   0.5 0.343000002 0.657000005
O5  O   0.5 0.656999998 0.342999995
O5  O   0   0.406999998 0.592999995
O5  O   1   0.406999998 0.592999995
O5  O   0   0.593000002 0.407000005
O5  O   1   0.593000002 0.407000005
O5  O   0.75    0.843000002 0.092999995
O5  O   0.25    0.156999998 0.907000005
O5  O   0.25    0.906999998 0.157000005
O5  O   0.75    0.093000002 0.842999995
O6  O   0.285100013 0.122000001 0.285100013
O6  O   0.714899987 0.877999999 0.714899987
O6  O   0.464899987 0.127999999 0.785100013
O6  O   0.535100013 0.872000001 0.214899987
O6  O   0.964899987 0.622000001 0.464899987
O6  O   0.035100013 0.377999999 0.535100013
O6  O   0.785100013 0.627999999 0.964899987
O6  O   0.214899987 0.372000001 0.035100013
O6  O   0.285100013 0.285100013 0.122000001
O6  O   0.714899987 0.714899987 0.877999999
O6  O   0.785100013 0.464899987 0.127999999
O6  O   0.214899987 0.535100013 0.872000001
O6  O   0.464899987 0.964899987 0.622000001
O6  O   0.535100013 0.035100013 0.377999999
O6  O   0.964899987 0.785100013 0.627999999
O6  O   0.035100013 0.214899987 0.372000001
O6  O   0.122000001 0.285100013 0.285100013
O6  O   0.877999999 0.714899987 0.714899987
O6  O   0.127999999 0.785100013 0.464899987
O6  O   0.872000001 0.214899987 0.535100013
O6  O   0.622000001 0.464899987 0.964899987
O6  O   0.377999999 0.535100013 0.035100013
O6  O   0.627999999 0.964899987 0.785100013
O6  O   0.372000001 0.035100013 0.214899987
O6  O   0.872000001 0.535100013 0.214899987
O6  O   0.127999999 0.464899987 0.785100013
O6  O   0.372000001 0.214899987 0.035100013
O6  O   0.627999999 0.785100013 0.964899987
O6  O   0.377999999 0.035100013 0.535100013
O6  O   0.622000001 0.964899987 0.464899987
O6  O   0.035100013 0.535100013 0.377999999
O6  O   0.964899987 0.464899987 0.622000001
O6  O   0.214899987 0.035100013 0.372000001
O6  O   0.785100013 0.964899987 0.627999999
O6  O   0.535100013 0.214899987 0.872000001
O6  O   0.464899987 0.785100013 0.127999999
O6  O   0.035100013 0.372000001 0.214899987
O6  O   0.964899987 0.627999999 0.785100013
O6  O   0.535100013 0.377999999 0.035100013
O6  O   0.464899987 0.622000001 0.964899987
O6  O   0.214899987 0.872000001 0.535100013
O6  O   0.785100013 0.127999999 0.464899987
O6  O   0.285100013 0.622000001 0.785100013
O6  O   0.714899987 0.377999999 0.214899987
O6  O   0.464899987 0.627999999 0.285100013
O6  O   0.535100013 0.372000001 0.714899987
O6  O   0.964899987 0.122000001 0.964899987
O6  O   0.035100013 0.877999999 0.035100013
O6  O   0.285100013 0.785100013 0.622000001
O6  O   0.714899987 0.214899987 0.377999999
O6  O   0.464899987 0.464899987 0.122000001
O6  O   0.535100013 0.535100013 0.877999999
O6  O   0.964899987 0.285100013 0.127999999
O6  O   0.035100013 0.714899987 0.872000001
O6  O   0.122000001 0.785100013 0.785100013
O6  O   0.877999999 0.214899987 0.214899987
O6  O   0.127999999 0.285100013 0.964899987
O6  O   0.872000001 0.714899987 0.035100013
O6  O   0.627999999 0.464899987 0.285100013
O6  O   0.372000001 0.535100013 0.714899987
O6  O   0.872000001 0.035100013 0.714899987
O6  O   0.127999999 0.964899987 0.285100013
O6  O   0.372000001 0.714899987 0.535100013
O6  O   0.627999999 0.285100013 0.464899987
O6  O   0.035100013 0.035100013 0.877999999
O6  O   0.964899987 0.964899987 0.122000001
O6  O   0.535100013 0.714899987 0.372000001
O6  O   0.464899987 0.285100013 0.627999999
O6  O   0.035100013 0.872000001 0.714899987
O6  O   0.964899987 0.127999999 0.285100013
O6  O   0.535100013 0.877999999 0.535100013
O6  O   0.464899987 0.122000001 0.464899987
O6  O   0.785100013 0.122000001 0.785100013
O6  O   0.214899987 0.877999999 0.214899987
O6  O   0.285100013 0.627999999 0.464899987
O6  O   0.714899987 0.372000001 0.535100013
O6  O   0.785100013 0.285100013 0.622000001
O6  O   0.214899987 0.714899987 0.377999999
O6  O   0.285100013 0.464899987 0.627999999
O6  O   0.714899987 0.535100013 0.372000001
O6  O   0.622000001 0.285100013 0.785100013
O6  O   0.377999999 0.714899987 0.214899987
O6  O   0.122000001 0.464899987 0.464899987
O6  O   0.877999999 0.535100013 0.535100013
O6  O   0.877999999 0.035100013 0.035100013
O6  O   0.122000001 0.964899987 0.964899987
O6  O   0.714899987 0.035100013 0.872000001
O6  O   0.285100013 0.964899987 0.127999999
O6  O   0.714899987 0.872000001 0.035100013
O6  O   0.285100013 0.127999999 0.964899987
O6  O   0.785100013 0.622000001 0.285100013
O6  O   0.214899987 0.377999999 0.714899987
O6  O   0.785100013 0.785100013 0.122000001
O6  O   0.214899987 0.214899987 0.877999999
O6  O   0.622000001 0.785100013 0.285100013
O6  O   0.377999999 0.214899987 0.714899987
O7  O   0.326999992 0.164499998 0.241799995
O7  O   0.673000008 0.835500002 0.758200005
O7  O   0.423000008 0.085500002 0.741799995
O7  O   0.576999992 0.914499998 0.258200005
O7  O   0.923000008 0.664499998 0.508200005
O7  O   0.076999992 0.335500002 0.491799995
O7  O   0.826999992 0.585500002 0.008200005
O7  O   0.173000008 0.414499998 0.991799995
O7  O   0.241799995 0.326999992 0.164499998
O7  O   0.758200005 0.673000008 0.835500002
O7  O   0.741799995 0.423000008 0.085500002
O7  O   0.258200005 0.576999992 0.914499998
O7  O   0.508200005 0.923000008 0.664499998
O7  O   0.491799995 0.076999992 0.335500002
O7  O   0.008200005 0.826999992 0.585500002
O7  O   0.991799995 0.173000008 0.414499998
O7  O   0.164499998 0.241799995 0.326999992
O7  O   0.835500002 0.758200005 0.673000008
O7  O   0.085500002 0.741799995 0.423000008
O7  O   0.914499998 0.258200005 0.576999992
O7  O   0.664499998 0.508200005 0.923000008
O7  O   0.335500002 0.491799995 0.076999992
O7  O   0.585500002 0.008200005 0.826999992
O7  O   0.414499998 0.991799995 0.173000008
O7  O   0.914499998 0.576999992 0.258200005
O7  O   0.085500002 0.423000008 0.741799995
O7  O   0.835500002 0.673000008 0.758200005
O7  O   0.164499998 0.326999992 0.241799995
O7  O   0.414499998 0.173000008 0.991799995
O7  O   0.585500002 0.826999992 0.008200005
O7  O   0.335500002 0.076999992 0.491799995
O7  O   0.664499998 0.923000008 0.508200005
O7  O   0.076999992 0.491799995 0.335500002
O7  O   0.923000008 0.508200005 0.664499998
O7  O   0.173000008 0.991799995 0.414499998
O7  O   0.826999992 0.008200005 0.585500002
O7  O   0.673000008 0.758200005 0.835500002
O7  O   0.326999992 0.241799995 0.164499998
O7  O   0.576999992 0.258200005 0.914499998
O7  O   0.423000008 0.741799995 0.085500002
O7  O   0.991799995 0.414499998 0.173000008
O7  O   0.008200005 0.585500002 0.826999992
O7  O   0.491799995 0.335500002 0.076999992
O7  O   0.508200005 0.664499998 0.923000008
O7  O   0.258200005 0.914499998 0.576999992
O7  O   0.741799995 0.085500002 0.423000008
O7  O   0.758200005 0.835500002 0.673000008
O7  O   0.241799995 0.164499998 0.326999992
O7  O   0.326999992 0.664499998 0.741799995
O7  O   0.673000008 0.335500002 0.258200005
O7  O   0.423000008 0.585500002 0.241799995
O7  O   0.576999992 0.414499998 0.758200005
O7  O   0.923000008 0.164499998 0.008200005
O7  O   0.076999992 0.835500002 0.991799995
O7  O   0.826999992 0.085500002 0.508200005
O7  O   0.173000008 0.914499998 0.491799995
O7  O   0.241799995 0.826999992 0.664499998
O7  O   0.758200005 0.173000008 0.335500002
O7  O   0.741799995 0.923000008 0.585500002
O7  O   0.258200005 0.076999992 0.414499998
O7  O   0.508200005 0.423000008 0.164499998
O7  O   0.491799995 0.576999992 0.835500002
O7  O   0.008200005 0.326999992 0.085500002
O7  O   0.991799995 0.673000008 0.914499998
O7  O   0.164499998 0.741799995 0.826999992
O7  O   0.835500002 0.258200005 0.173000008
O7  O   0.085500002 0.241799995 0.923000008
O7  O   0.914499998 0.758200005 0.076999992
O7  O   0.664499998 0.008200005 0.423000008
O7  O   0.335500002 0.991799995 0.576999992
O7  O   0.585500002 0.508200005 0.326999992
O7  O   0.414499998 0.491799995 0.673000008
O7  O   0.914499998 0.076999992 0.758200005
O7  O   0.085500002 0.923000008 0.241799995
O7  O   0.835500002 0.173000008 0.258200005
O7  O   0.164499998 0.826999992 0.741799995
O7  O   0.414499998 0.673000008 0.491799995
O7  O   0.585500002 0.326999992 0.508200005
O7  O   0.335500002 0.576999992 0.991799995
O7  O   0.664499998 0.423000008 0.008200005
O7  O   0.076999992 0.991799995 0.835500002
O7  O   0.923000008 0.008200005 0.164499998
O7  O   0.173000008 0.491799995 0.914499998
O7  O   0.826999992 0.508200005 0.085500002
O7  O   0.673000008 0.258200005 0.335500002
O7  O   0.326999992 0.741799995 0.664499998
O7  O   0.576999992 0.758200005 0.414499998
O7  O   0.423000008 0.241799995 0.585500002
O7  O   0.991799995 0.914499998 0.673000008
O7  O   0.008200005 0.085500002 0.326999992
O7  O   0.491799995 0.835500002 0.576999992
O7  O   0.508200005 0.164499998 0.423000008
O7  O   0.258200005 0.414499998 0.076999992
O7  O   0.741799995 0.585500002 0.923000008
O7  O   0.758200005 0.335500002 0.173000008
O7  O   0.241799995 0.664499998 0.826999992
O7  O   0.826999992 0.164499998 0.741799995
O7  O   0.173000008 0.835500002 0.258200005
O7  O   0.923000008 0.085500002 0.241799995
O7  O   0.076999992 0.914499998 0.758200005
O7  O   0.423000008 0.664499998 0.008200005
O7  O   0.576999992 0.335500002 0.991799995
O7  O   0.326999992 0.585500002 0.508200005
O7  O   0.673000008 0.414499998 0.491799995
O7  O   0.741799995 0.326999992 0.664499998
O7  O   0.258200005 0.673000008 0.335500002
O7  O   0.241799995 0.423000008 0.585500002
O7  O   0.758200005 0.576999992 0.414499998
O7  O   0.008200005 0.923000008 0.164499998
O7  O   0.991799995 0.076999992 0.835500002
O7  O   0.508200005 0.826999992 0.085500002
O7  O   0.491799995 0.173000008 0.914499998
O7  O   0.664499998 0.241799995 0.826999992
O7  O   0.335500002 0.758200005 0.173000008
O7  O   0.585500002 0.741799995 0.923000008
O7  O   0.414499998 0.258200005 0.076999992
O7  O   0.164499998 0.508200005 0.423000008
O7  O   0.835500002 0.491799995 0.576999992
O7  O   0.085500002 0.008200005 0.326999992
O7  O   0.914499998 0.991799995 0.673000008
O7  O   0.414499998 0.576999992 0.758200005
O7  O   0.585500002 0.423000008 0.241799995
O7  O   0.335500002 0.673000008 0.258200005
O7  O   0.664499998 0.326999992 0.741799995
O7  O   0.914499998 0.173000008 0.491799995
O7  O   0.085500002 0.826999992 0.508200005
O7  O   0.835500002 0.076999992 0.991799995
O7  O   0.164499998 0.923000008 0.008200005
O7  O   0.576999992 0.491799995 0.835500002
O7  O   0.423000008 0.508200005 0.164499998
O7  O   0.673000008 0.991799995 0.914499998
O7  O   0.326999992 0.008200005 0.085500002
O7  O   0.173000008 0.758200005 0.335500002
O7  O   0.826999992 0.241799995 0.664499998
O7  O   0.076999992 0.258200005 0.414499998
O7  O   0.923000008 0.741799995 0.585500002
O7  O   0.491799995 0.414499998 0.673000008
O7  O   0.508200005 0.585500002 0.326999992
O7  O   0.991799995 0.335500002 0.576999992
O7  O   0.008200005 0.664499998 0.423000008
O7  O   0.758200005 0.914499998 0.076999992
O7  O   0.241799995 0.085500002 0.923000008
O7  O   0.258200005 0.835500002 0.173000008
O7  O   0.741799995 0.164499998 0.826999992
O7  O   0.826999992 0.664499998 0.241799995
O7  O   0.173000008 0.335500002 0.758200005
O7  O   0.923000008 0.585500002 0.741799995
O7  O   0.076999992 0.414499998 0.258200005
O7  O   0.423000008 0.164499998 0.508200005
O7  O   0.576999992 0.835500002 0.491799995
O7  O   0.326999992 0.085500002 0.008200005
O7  O   0.673000008 0.914499998 0.991799995
O7  O   0.741799995 0.826999992 0.164499998
O7  O   0.258200005 0.173000008 0.835500002
O7  O   0.241799995 0.923000008 0.085500002
O7  O   0.758200005 0.076999992 0.914499998
O7  O   0.008200005 0.423000008 0.664499998
O7  O   0.991799995 0.576999992 0.335500002
O7  O   0.508200005 0.326999992 0.585500002
O7  O   0.491799995 0.673000008 0.414499998
O7  O   0.664499998 0.741799995 0.326999992
O7  O   0.335500002 0.258200005 0.673000008
O7  O   0.585500002 0.241799995 0.423000008
O7  O   0.414499998 0.758200005 0.576999992
O7  O   0.164499998 0.008200005 0.923000008
O7  O   0.835500002 0.991799995 0.076999992
O7  O   0.085500002 0.508200005 0.826999992
O7  O   0.914499998 0.491799995 0.173000008
O7  O   0.414499998 0.076999992 0.258200005
O7  O   0.585500002 0.923000008 0.741799995
O7  O   0.335500002 0.173000008 0.758200005
O7  O   0.664499998 0.826999992 0.241799995
O7  O   0.914499998 0.673000008 0.991799995
O7  O   0.085500002 0.326999992 0.008200005
O7  O   0.835500002 0.576999992 0.491799995
O7  O   0.164499998 0.423000008 0.508200005
O7  O   0.576999992 0.991799995 0.335500002
O7  O   0.423000008 0.008200005 0.664499998
O7  O   0.673000008 0.491799995 0.414499998
O7  O   0.326999992 0.508200005 0.585500002
O7  O   0.173000008 0.258200005 0.835500002
O7  O   0.826999992 0.741799995 0.164499998
O7  O   0.076999992 0.758200005 0.914499998
O7  O   0.923000008 0.241799995 0.085500002
O7  O   0.491799995 0.914499998 0.173000008
O7  O   0.508200005 0.085500002 0.826999992
O7  O   0.991799995 0.835500002 0.076999992
O7  O   0.008200005 0.164499998 0.923000008
O7  O   0.758200005 0.414499998 0.576999992
O7  O   0.241799995 0.585500002 0.423000008
O7  O   0.258200005 0.335500002 0.673000008
O7  O   0.741799995 0.664499998 0.326999992
O8  O   0.280400008 0.210600004 0.369899988
O8  O   0.719599992 0.789399996 0.630100012
O8  O   0.469599992 0.039399996 0.869899988
O8  O   0.530400008 0.960600004 0.130100012
O8  O   0.969599992 0.710600004 0.380100012
O8  O   0.030400008 0.289399996 0.619899988
O8  O   0.780400008 0.539399996 0.880100012
O8  O   0.219599992 0.460600004 0.119899988
O8  O   0.369899988 0.280400008 0.210600004
O8  O   0.630100012 0.719599992 0.789399996
O8  O   0.869899988 0.469599992 0.039399996
O8  O   0.130100012 0.530400008 0.960600004
O8  O   0.380100012 0.969599992 0.710600004
O8  O   0.619899988 0.030400008 0.289399996
O8  O   0.880100012 0.780400008 0.539399996
O8  O   0.119899988 0.219599992 0.460600004
O8  O   0.210600004 0.369899988 0.280400008
O8  O   0.789399996 0.630100012 0.719599992
O8  O   0.039399996 0.869899988 0.469599992
O8  O   0.960600004 0.130100012 0.530400008
O8  O   0.710600004 0.380100012 0.969599992
O8  O   0.289399996 0.619899988 0.030400008
O8  O   0.539399996 0.880100012 0.780400008
O8  O   0.460600004 0.119899988 0.219599992
O8  O   0.960600004 0.530400008 0.130100012
O8  O   0.039399996 0.469599992 0.869899988
O8  O   0.789399996 0.719599992 0.630100012
O8  O   0.210600004 0.280400008 0.369899988
O8  O   0.460600004 0.219599992 0.119899988
O8  O   0.539399996 0.780400008 0.880100012
O8  O   0.289399996 0.030400008 0.619899988
O8  O   0.710600004 0.969599992 0.380100012
O8  O   0.030400008 0.619899988 0.289399996
O8  O   0.969599992 0.380100012 0.710600004
O8  O   0.219599992 0.119899988 0.460600004
O8  O   0.780400008 0.880100012 0.539399996
O8  O   0.719599992 0.630100012 0.789399996
O8  O   0.280400008 0.369899988 0.210600004
O8  O   0.530400008 0.130100012 0.960600004
O8  O   0.469599992 0.869899988 0.039399996
O8  O   0.119899988 0.460600004 0.219599992
O8  O   0.880100012 0.539399996 0.780400008
O8  O   0.619899988 0.289399996 0.030400008
O8  O   0.380100012 0.710600004 0.969599992
O8  O   0.130100012 0.960600004 0.530400008
O8  O   0.869899988 0.039399996 0.469599992
O8  O   0.630100012 0.789399996 0.719599992
O8  O   0.369899988 0.210600004 0.280400008
O8  O   0.280400008 0.710600004 0.869899988
O8  O   0.719599992 0.289399996 0.130100012
O8  O   0.469599992 0.539399996 0.369899988
O8  O   0.530400008 0.460600004 0.630100012
O8  O   0.969599992 0.210600004 0.880100012
O8  O   0.030400008 0.789399996 0.119899988
O8  O   0.780400008 0.039399996 0.380100012
O8  O   0.219599992 0.960600004 0.619899988
O8  O   0.369899988 0.780400008 0.710600004
O8  O   0.630100012 0.219599992 0.289399996
O8  O   0.869899988 0.969599992 0.539399996
O8  O   0.130100012 0.030400008 0.460600004
O8  O   0.380100012 0.469599992 0.210600004
O8  O   0.619899988 0.530400008 0.789399996
O8  O   0.880100012 0.280400008 0.039399996
O8  O   0.119899988 0.719599992 0.960600004
O8  O   0.210600004 0.869899988 0.780400008
O8  O   0.789399996 0.130100012 0.219599992
O8  O   0.039399996 0.369899988 0.969599992
O8  O   0.960600004 0.630100012 0.030400008
O8  O   0.710600004 0.880100012 0.469599992
O8  O   0.289399996 0.119899988 0.530400008
O8  O   0.539399996 0.380100012 0.280400008
O8  O   0.460600004 0.619899988 0.719599992
O8  O   0.960600004 0.030400008 0.630100012
O8  O   0.039399996 0.969599992 0.369899988
O8  O   0.789399996 0.219599992 0.130100012
O8  O   0.210600004 0.780400008 0.869899988
O8  O   0.460600004 0.719599992 0.619899988
O8  O   0.539399996 0.280400008 0.380100012
O8  O   0.289399996 0.530400008 0.119899988
O8  O   0.710600004 0.469599992 0.880100012
O8  O   0.030400008 0.119899988 0.789399996
O8  O   0.969599992 0.880100012 0.210600004
O8  O   0.219599992 0.619899988 0.960600004
O8  O   0.780400008 0.380100012 0.039399996
O8  O   0.719599992 0.130100012 0.289399996
O8  O   0.280400008 0.869899988 0.710600004
O8  O   0.530400008 0.630100012 0.460600004
O8  O   0.469599992 0.369899988 0.539399996
O8  O   0.119899988 0.960600004 0.719599992
O8  O   0.880100012 0.039399996 0.280400008
O8  O   0.619899988 0.789399996 0.530400008
O8  O   0.380100012 0.210600004 0.469599992
O8  O   0.130100012 0.460600004 0.030400008
O8  O   0.869899988 0.539399996 0.969599992
O8  O   0.630100012 0.289399996 0.219599992
O8  O   0.369899988 0.710600004 0.780400008
O8  O   0.780400008 0.210600004 0.869899988
O8  O   0.219599992 0.789399996 0.130100012
O8  O   0.969599992 0.039399996 0.369899988
O8  O   0.030400008 0.960600004 0.630100012
O8  O   0.469599992 0.710600004 0.880100012
O8  O   0.530400008 0.289399996 0.119899988
O8  O   0.280400008 0.539399996 0.380100012
O8  O   0.719599992 0.460600004 0.619899988
O8  O   0.869899988 0.280400008 0.710600004
O8  O   0.130100012 0.719599992 0.289399996
O8  O   0.369899988 0.469599992 0.539399996
O8  O   0.630100012 0.530400008 0.460600004
O8  O   0.880100012 0.969599992 0.210600004
O8  O   0.119899988 0.030400008 0.789399996
O8  O   0.380100012 0.780400008 0.039399996
O8  O   0.619899988 0.219599992 0.960600004
O8  O   0.710600004 0.369899988 0.780400008
O8  O   0.289399996 0.630100012 0.219599992
O8  O   0.539399996 0.869899988 0.969599992
O8  O   0.460600004 0.130100012 0.030400008
O8  O   0.210600004 0.380100012 0.469599992
O8  O   0.789399996 0.619899988 0.530400008
O8  O   0.039399996 0.880100012 0.280400008
O8  O   0.960600004 0.119899988 0.719599992
O8  O   0.460600004 0.530400008 0.630100012
O8  O   0.539399996 0.469599992 0.369899988
O8  O   0.289399996 0.719599992 0.130100012
O8  O   0.710600004 0.280400008 0.869899988
O8  O   0.960600004 0.219599992 0.619899988
O8  O   0.039399996 0.780400008 0.380100012
O8  O   0.789399996 0.030400008 0.119899988
O8  O   0.210600004 0.969599992 0.880100012
O8  O   0.530400008 0.619899988 0.789399996
O8  O   0.469599992 0.380100012 0.210600004
O8  O   0.719599992 0.119899988 0.960600004
O8  O   0.280400008 0.880100012 0.039399996
O8  O   0.219599992 0.630100012 0.289399996
O8  O   0.780400008 0.369899988 0.710600004
O8  O   0.030400008 0.130100012 0.460600004
O8  O   0.969599992 0.869899988 0.539399996
O8  O   0.619899988 0.460600004 0.719599992
O8  O   0.380100012 0.539399996 0.280400008
O8  O   0.119899988 0.289399996 0.530400008
O8  O   0.880100012 0.710600004 0.469599992
O8  O   0.630100012 0.960600004 0.030400008
O8  O   0.369899988 0.039399996 0.969599992
O8  O   0.130100012 0.789399996 0.219599992
O8  O   0.869899988 0.210600004 0.780400008
O8  O   0.780400008 0.710600004 0.369899988
O8  O   0.219599992 0.289399996 0.630100012
O8  O   0.969599992 0.539399996 0.869899988
O8  O   0.030400008 0.460600004 0.130100012
O8  O   0.469599992 0.210600004 0.380100012
O8  O   0.530400008 0.789399996 0.619899988
O8  O   0.280400008 0.039399996 0.880100012
O8  O   0.719599992 0.960600004 0.119899988
O8  O   0.869899988 0.780400008 0.210600004
O8  O   0.130100012 0.219599992 0.789399996
O8  O   0.369899988 0.969599992 0.039399996
O8  O   0.630100012 0.030400008 0.960600004
O8  O   0.880100012 0.469599992 0.710600004
O8  O   0.119899988 0.530400008 0.289399996
O8  O   0.380100012 0.280400008 0.539399996
O8  O   0.619899988 0.719599992 0.460600004
O8  O   0.710600004 0.869899988 0.280400008
O8  O   0.289399996 0.130100012 0.719599992
O8  O   0.539399996 0.369899988 0.469599992
O8  O   0.460600004 0.630100012 0.530400008
O8  O   0.210600004 0.880100012 0.969599992
O8  O   0.789399996 0.119899988 0.030400008
O8  O   0.039399996 0.380100012 0.780400008
O8  O   0.960600004 0.619899988 0.219599992
O8  O   0.460600004 0.030400008 0.130100012
O8  O   0.539399996 0.969599992 0.869899988
O8  O   0.289399996 0.219599992 0.630100012
O8  O   0.710600004 0.780400008 0.369899988
O8  O   0.960600004 0.719599992 0.119899988
O8  O   0.039399996 0.280400008 0.880100012
O8  O   0.789399996 0.530400008 0.619899988
O8  O   0.210600004 0.469599992 0.380100012
O8  O   0.530400008 0.119899988 0.289399996
O8  O   0.469599992 0.880100012 0.710600004
O8  O   0.719599992 0.619899988 0.460600004
O8  O   0.280400008 0.380100012 0.539399996
O8  O   0.219599992 0.130100012 0.789399996
O8  O   0.780400008 0.869899988 0.210600004
O8  O   0.030400008 0.630100012 0.960600004
O8  O   0.969599992 0.369899988 0.039399996
O8  O   0.619899988 0.960600004 0.219599992
O8  O   0.380100012 0.039399996 0.780400008
O8  O   0.119899988 0.789399996 0.030400008
O8  O   0.880100012 0.210600004 0.969599992
O8  O   0.630100012 0.460600004 0.530400008
O8  O   0.369899988 0.539399996 0.469599992
O8  O   0.130100012 0.289399996 0.719599992
O8  O   0.869899988 0.710600004 0.280400008
O9  O   0.299499989 0.201199993 0.299499989
O9  O   0.700500011 0.798800007 0.700500011
O9  O   0.450500011 0.048800007 0.799499989
O9  O   0.549499989 0.951199993 0.200500011
O9  O   0.950500011 0.701199993 0.450500011
O9  O   0.049499989 0.298800007 0.549499989
O9  O   0.799499989 0.548800007 0.950500011
O9  O   0.200500011 0.451199993 0.049499989
O9  O   0.299499989 0.299499989 0.201199993
O9  O   0.700500011 0.700500011 0.798800007
O9  O   0.799499989 0.450500011 0.048800007
O9  O   0.200500011 0.549499989 0.951199993
O9  O   0.450500011 0.950500011 0.701199993
O9  O   0.549499989 0.049499989 0.298800007
O9  O   0.950500011 0.799499989 0.548800007
O9  O   0.049499989 0.200500011 0.451199993
O9  O   0.201199993 0.299499989 0.299499989
O9  O   0.798800007 0.700500011 0.700500011
O9  O   0.048800007 0.799499989 0.450500011
O9  O   0.951199993 0.200500011 0.549499989
O9  O   0.701199993 0.450500011 0.950500011
O9  O   0.298800007 0.549499989 0.049499989
O9  O   0.548800007 0.950500011 0.799499989
O9  O   0.451199993 0.049499989 0.200500011
O9  O   0.951199993 0.549499989 0.200500011
O9  O   0.048800007 0.450500011 0.799499989
O9  O   0.451199993 0.200500011 0.049499989
O9  O   0.548800007 0.799499989 0.950500011
O9  O   0.298800007 0.049499989 0.549499989
O9  O   0.701199993 0.950500011 0.450500011
O9  O   0.049499989 0.549499989 0.298800007
O9  O   0.950500011 0.450500011 0.701199993
O9  O   0.200500011 0.049499989 0.451199993
O9  O   0.799499989 0.950500011 0.548800007
O9  O   0.549499989 0.200500011 0.951199993
O9  O   0.450500011 0.799499989 0.048800007
O9  O   0.049499989 0.451199993 0.200500011
O9  O   0.950500011 0.548800007 0.799499989
O9  O   0.549499989 0.298800007 0.049499989
O9  O   0.450500011 0.701199993 0.950500011
O9  O   0.200500011 0.951199993 0.549499989
O9  O   0.799499989 0.048800007 0.450500011
O9  O   0.299499989 0.701199993 0.799499989
O9  O   0.700500011 0.298800007 0.200500011
O9  O   0.450500011 0.548800007 0.299499989
O9  O   0.549499989 0.451199993 0.700500011
O9  O   0.950500011 0.201199993 0.950500011
O9  O   0.049499989 0.798800007 0.049499989
O9  O   0.299499989 0.799499989 0.701199993
O9  O   0.700500011 0.200500011 0.298800007
O9  O   0.450500011 0.450500011 0.201199993
O9  O   0.549499989 0.549499989 0.798800007
O9  O   0.950500011 0.299499989 0.048800007
O9  O   0.049499989 0.700500011 0.951199993
O9  O   0.201199993 0.799499989 0.799499989
O9  O   0.798800007 0.200500011 0.200500011
O9  O   0.048800007 0.299499989 0.950500011
O9  O   0.951199993 0.700500011 0.049499989
O9  O   0.548800007 0.450500011 0.299499989
O9  O   0.451199993 0.549499989 0.700500011
O9  O   0.951199993 0.049499989 0.700500011
O9  O   0.048800007 0.950500011 0.299499989
O9  O   0.451199993 0.700500011 0.549499989
O9  O   0.548800007 0.299499989 0.450500011
O9  O   0.049499989 0.049499989 0.798800007
O9  O   0.950500011 0.950500011 0.201199993
O9  O   0.549499989 0.700500011 0.451199993
O9  O   0.450500011 0.299499989 0.548800007
O9  O   0.049499989 0.951199993 0.700500011
O9  O   0.950500011 0.048800007 0.299499989
O9  O   0.549499989 0.798800007 0.549499989
O9  O   0.450500011 0.201199993 0.450500011
O9  O   0.799499989 0.201199993 0.799499989
O9  O   0.200500011 0.798800007 0.200500011
O9  O   0.299499989 0.548800007 0.450500011
O9  O   0.700500011 0.451199993 0.549499989
O9  O   0.799499989 0.299499989 0.701199993
O9  O   0.200500011 0.700500011 0.298800007
O9  O   0.299499989 0.450500011 0.548800007
O9  O   0.700500011 0.549499989 0.451199993
O9  O   0.701199993 0.299499989 0.799499989
O9  O   0.298800007 0.700500011 0.200500011
O9  O   0.201199993 0.450500011 0.450500011
O9  O   0.798800007 0.549499989 0.549499989
O9  O   0.798800007 0.049499989 0.049499989
O9  O   0.201199993 0.950500011 0.950500011
O9  O   0.700500011 0.049499989 0.951199993
O9  O   0.299499989 0.950500011 0.048800007
O9  O   0.700500011 0.951199993 0.049499989
O9  O   0.299499989 0.048800007 0.950500011
O9  O   0.799499989 0.701199993 0.299499989
O9  O   0.200500011 0.298800007 0.700500011
O9  O   0.799499989 0.799499989 0.201199993
O9  O   0.200500011 0.200500011 0.798800007
O9  O   0.701199993 0.799499989 0.299499989
O9  O   0.298800007 0.200500011 0.700500011
O10 O   0.237399995 0.237399995 0.316199988
O10 O   0.762600005 0.762600005 0.683800012
O10 O   0.512600005 0.012600005 0.816199988
O10 O   0.487399995 0.987399995 0.183800012
O10 O   0.012600005 0.737399995 0.433800012
O10 O   0.987399995 0.262600005 0.566199988
O10 O   0.737399995 0.512600005 0.933800012
O10 O   0.262600005 0.487399995 0.066199988
O10 O   0.316199988 0.237399995 0.237399995
O10 O   0.683800012 0.762600005 0.762600005
O10 O   0.816199988 0.512600005 0.012600005
O10 O   0.183800012 0.487399995 0.987399995
O10 O   0.433800012 0.012600005 0.737399995
O10 O   0.566199988 0.987399995 0.262600005
O10 O   0.933800012 0.737399995 0.512600005
O10 O   0.066199988 0.262600005 0.487399995
O10 O   0.237399995 0.316199988 0.237399995
O10 O   0.762600005 0.683800012 0.762600005
O10 O   0.012600005 0.816199988 0.512600005
O10 O   0.987399995 0.183800012 0.487399995
O10 O   0.737399995 0.433800012 0.012600005
O10 O   0.262600005 0.566199988 0.987399995
O10 O   0.512600005 0.933800012 0.737399995
O10 O   0.487399995 0.066199988 0.262600005
O10 O   0.987399995 0.487399995 0.183800012
O10 O   0.012600005 0.512600005 0.816199988
O10 O   0.487399995 0.262600005 0.066199988
O10 O   0.512600005 0.737399995 0.933800012
O10 O   0.262600005 0.987399995 0.566199988
O10 O   0.737399995 0.012600005 0.433800012
O10 O   0.987399995 0.566199988 0.262600005
O10 O   0.012600005 0.433800012 0.737399995
O10 O   0.262600005 0.066199988 0.487399995
O10 O   0.737399995 0.933800012 0.512600005
O10 O   0.487399995 0.183800012 0.987399995
O10 O   0.512600005 0.816199988 0.012600005
O10 O   0.066199988 0.487399995 0.262600005
O10 O   0.933800012 0.512600005 0.737399995
O10 O   0.566199988 0.262600005 0.987399995
O10 O   0.433800012 0.737399995 0.012600005
O10 O   0.183800012 0.987399995 0.487399995
O10 O   0.816199988 0.012600005 0.512600005
O10 O   0.237399995 0.737399995 0.816199988
O10 O   0.762600005 0.262600005 0.183800012
O10 O   0.512600005 0.512600005 0.316199988
O10 O   0.487399995 0.487399995 0.683800012
O10 O   0.012600005 0.237399995 0.933800012
O10 O   0.987399995 0.762600005 0.066199988
O10 O   0.316199988 0.737399995 0.737399995
O10 O   0.683800012 0.262600005 0.262600005
O10 O   0.433800012 0.512600005 0.237399995
O10 O   0.566199988 0.487399995 0.762600005
O10 O   0.933800012 0.237399995 0.012600005
O10 O   0.066199988 0.762600005 0.987399995
O10 O   0.237399995 0.816199988 0.737399995
O10 O   0.762600005 0.183800012 0.262600005
O10 O   0.012600005 0.316199988 0.012600005
O10 O   0.987399995 0.683800012 0.987399995
O10 O   0.512600005 0.433800012 0.237399995
O10 O   0.487399995 0.566199988 0.762600005
O10 O   0.987399995 0.987399995 0.683800012
O10 O   0.012600005 0.012600005 0.316199988
O10 O   0.487399995 0.762600005 0.566199988
O10 O   0.512600005 0.237399995 0.433800012
O10 O   0.987399995 0.066199988 0.762600005
O10 O   0.012600005 0.933800012 0.237399995
O10 O   0.487399995 0.683800012 0.487399995
O10 O   0.512600005 0.316199988 0.512600005
O10 O   0.066199988 0.987399995 0.762600005
O10 O   0.933800012 0.012600005 0.237399995
O10 O   0.566199988 0.762600005 0.487399995
O10 O   0.433800012 0.237399995 0.512600005
O10 O   0.737399995 0.237399995 0.816199988
O10 O   0.262600005 0.762600005 0.183800012
O10 O   0.237399995 0.512600005 0.433800012
O10 O   0.762600005 0.487399995 0.566199988
O10 O   0.816199988 0.237399995 0.737399995
O10 O   0.183800012 0.762600005 0.262600005
O10 O   0.316199988 0.512600005 0.512600005
O10 O   0.683800012 0.487399995 0.487399995
O10 O   0.737399995 0.316199988 0.737399995
O10 O   0.262600005 0.683800012 0.262600005
O10 O   0.237399995 0.433800012 0.512600005
O10 O   0.762600005 0.566199988 0.487399995
O10 O   0.762600005 0.987399995 0.066199988
O10 O   0.237399995 0.012600005 0.933800012
O10 O   0.762600005 0.066199988 0.987399995
O10 O   0.237399995 0.933800012 0.012600005
O10 O   0.683800012 0.987399995 0.987399995
O10 O   0.316199988 0.012600005 0.012600005
O10 O   0.737399995 0.737399995 0.316199988
O10 O   0.262600005 0.262600005 0.683800012
O10 O   0.816199988 0.737399995 0.237399995
O10 O   0.183800012 0.262600005 0.762600005
O10 O   0.737399995 0.816199988 0.237399995
O10 O   0.262600005 0.183800012 0.762600005
O11 O   0.435099989 0.214300007 0.314900011
O11 O   0.564900011 0.785699993 0.685099989
O11 O   0.314900011 0.035699993 0.814900011
O11 O   0.685099989 0.964300007 0.185099989
O11 O   0.814900011 0.714300007 0.435099989
O11 O   0.185099989 0.285699993 0.564900011
O11 O   0.935099989 0.535699993 0.935099989
O11 O   0.064900011 0.464300007 0.064900011
O11 O   0.314900011 0.435099989 0.214300007
O11 O   0.685099989 0.564900011 0.785699993
O11 O   0.814900011 0.314900011 0.035699993
O11 O   0.185099989 0.685099989 0.964300007
O11 O   0.435099989 0.814900011 0.714300007
O11 O   0.564900011 0.185099989 0.285699993
O11 O   0.935099989 0.935099989 0.535699993
O11 O   0.064900011 0.064900011 0.464300007
O11 O   0.214300007 0.314900011 0.435099989
O11 O   0.785699993 0.685099989 0.564900011
O11 O   0.035699993 0.814900011 0.314900011
O11 O   0.964300007 0.185099989 0.685099989
O11 O   0.714300007 0.435099989 0.814900011
O11 O   0.285699993 0.564900011 0.185099989
O11 O   0.535699993 0.935099989 0.935099989
O11 O   0.464300007 0.064900011 0.064900011
O11 O   0.964300007 0.685099989 0.185099989
O11 O   0.035699993 0.314900011 0.814900011
O11 O   0.785699993 0.564900011 0.685099989
O11 O   0.214300007 0.435099989 0.314900011
O11 O   0.285699993 0.185099989 0.564900011
O11 O   0.714300007 0.814900011 0.435099989
O11 O   0.185099989 0.564900011 0.285699993
O11 O   0.814900011 0.435099989 0.714300007
O11 O   0.564900011 0.685099989 0.785699993
O11 O   0.435099989 0.314900011 0.214300007
O11 O   0.685099989 0.185099989 0.964300007
O11 O   0.314900011 0.814900011 0.035699993
O11 O   0.564900011 0.285699993 0.185099989
O11 O   0.435099989 0.714300007 0.814900011
O11 O   0.185099989 0.964300007 0.685099989
O11 O   0.814900011 0.035699993 0.314900011
O11 O   0.685099989 0.785699993 0.564900011
O11 O   0.314900011 0.214300007 0.435099989
O11 O   0.314900011 0.535699993 0.314900011
O11 O   0.685099989 0.464300007 0.685099989
O11 O   0.814900011 0.214300007 0.935099989
O11 O   0.185099989 0.785699993 0.064900011
O11 O   0.935099989 0.035699993 0.435099989
O11 O   0.064900011 0.964300007 0.564900011
O11 O   0.314900011 0.935099989 0.714300007
O11 O   0.685099989 0.064900011 0.285699993
O11 O   0.814900011 0.814900011 0.535699993
O11 O   0.185099989 0.185099989 0.464300007
O11 O   0.935099989 0.435099989 0.035699993
O11 O   0.064900011 0.564900011 0.964300007
O11 O   0.214300007 0.814900011 0.935099989
O11 O   0.785699993 0.185099989 0.064900011
O11 O   0.714300007 0.935099989 0.314900011
O11 O   0.285699993 0.064900011 0.685099989
O11 O   0.535699993 0.435099989 0.435099989
O11 O   0.464300007 0.564900011 0.564900011
O11 O   0.785699993 0.064900011 0.185099989
O11 O   0.214300007 0.935099989 0.814900011
O11 O   0.285699993 0.685099989 0.064900011
O11 O   0.714300007 0.314900011 0.935099989
O11 O   0.185099989 0.064900011 0.785699993
O11 O   0.814900011 0.935099989 0.214300007
O11 O   0.685099989 0.685099989 0.464300007
O11 O   0.314900011 0.314900011 0.535699993
O11 O   0.185099989 0.464300007 0.185099989
O11 O   0.814900011 0.535699993 0.814900011
O11 O   0.685099989 0.285699993 0.064900011
O11 O   0.314900011 0.714300007 0.935099989
O11 O   0.935099989 0.214300007 0.814900011
O11 O   0.064900011 0.785699993 0.185099989
O11 O   0.435099989 0.535699993 0.435099989
O11 O   0.564900011 0.464300007 0.564900011
O11 O   0.935099989 0.814900011 0.214300007
O11 O   0.064900011 0.185099989 0.785699993
O11 O   0.435099989 0.935099989 0.035699993
O11 O   0.564900011 0.064900011 0.964300007
O11 O   0.535699993 0.814900011 0.814900011
O11 O   0.464300007 0.185099989 0.185099989
O11 O   0.035699993 0.935099989 0.435099989
O11 O   0.964300007 0.064900011 0.564900011
O11 O   0.464300007 0.685099989 0.685099989
O11 O   0.535699993 0.314900011 0.314900011
O11 O   0.064900011 0.685099989 0.285699993
O11 O   0.935099989 0.314900011 0.714300007
O11 O   0.064900011 0.285699993 0.685099989
O11 O   0.935099989 0.714300007 0.314900011
O11 O   0.435099989 0.035699993 0.935099989
O11 O   0.564900011 0.964300007 0.064900011
O11 O   0.435099989 0.435099989 0.535699993
O11 O   0.564900011 0.564900011 0.464300007
O11 O   0.035699993 0.435099989 0.935099989
O11 O   0.964300007 0.564900011 0.064900011
O12 O   0.423700005 0.252999991 0.252999991
O12 O   0.576299995 0.747000009 0.747000009
O12 O   0.326299995 0.997000009 0.752999991
O12 O   0.673700005 0.002999991 0.247000009
O12 O   0.826299995 0.752999991 0.497000009
O12 O   0.173700005 0.247000009 0.502999991
O12 O   0.923700005 0.497000009 0.997000009
O12 O   0.076299995 0.502999991 0.002999991
O12 O   0.252999991 0.423700005 0.252999991
O12 O   0.747000009 0.576299995 0.747000009
O12 O   0.752999991 0.326299995 0.997000009
O12 O   0.247000009 0.673700005 0.002999991
O12 O   0.497000009 0.826299995 0.752999991
O12 O   0.502999991 0.173700005 0.247000009
O12 O   0.997000009 0.923700005 0.497000009
O12 O   0.002999991 0.076299995 0.502999991
O12 O   0.252999991 0.252999991 0.423700005
O12 O   0.747000009 0.747000009 0.576299995
O12 O   0.997000009 0.752999991 0.326299995
O12 O   0.002999991 0.247000009 0.673700005
O12 O   0.752999991 0.497000009 0.826299995
O12 O   0.247000009 0.502999991 0.173700005
O12 O   0.497000009 0.997000009 0.923700005
O12 O   0.502999991 0.002999991 0.076299995
O12 O   0.002999991 0.673700005 0.247000009
O12 O   0.997000009 0.326299995 0.752999991
O12 O   0.502999991 0.076299995 0.002999991
O12 O   0.497000009 0.923700005 0.997000009
O12 O   0.247000009 0.173700005 0.502999991
O12 O   0.752999991 0.826299995 0.497000009
O12 O   0.173700005 0.502999991 0.247000009
O12 O   0.826299995 0.497000009 0.752999991
O12 O   0.076299995 0.002999991 0.502999991
O12 O   0.923700005 0.997000009 0.497000009
O12 O   0.673700005 0.247000009 0.002999991
O12 O   0.326299995 0.752999991 0.997000009
O12 O   0.002999991 0.502999991 0.076299995
O12 O   0.997000009 0.497000009 0.923700005
O12 O   0.502999991 0.247000009 0.173700005
O12 O   0.497000009 0.752999991 0.826299995
O12 O   0.247000009 0.002999991 0.673700005
O12 O   0.752999991 0.997000009 0.326299995
O12 O   0.423700005 0.752999991 0.752999991
O12 O   0.576299995 0.247000009 0.247000009
O12 O   0.326299995 0.497000009 0.252999991
O12 O   0.673700005 0.502999991 0.747000009
O12 O   0.826299995 0.252999991 0.997000009
O12 O   0.173700005 0.747000009 0.002999991
O12 O   0.252999991 0.923700005 0.752999991
O12 O   0.747000009 0.076299995 0.247000009
O12 O   0.497000009 0.326299995 0.252999991
O12 O   0.502999991 0.673700005 0.747000009
O12 O   0.997000009 0.423700005 0.997000009
O12 O   0.002999991 0.576299995 0.002999991
O12 O   0.252999991 0.752999991 0.923700005
O12 O   0.747000009 0.247000009 0.076299995
O12 O   0.997000009 0.252999991 0.826299995
O12 O   0.002999991 0.747000009 0.173700005
O12 O   0.497000009 0.497000009 0.423700005
O12 O   0.502999991 0.502999991 0.576299995
O12 O   0.002999991 0.173700005 0.747000009
O12 O   0.997000009 0.826299995 0.252999991
O12 O   0.502999991 0.576299995 0.502999991
O12 O   0.497000009 0.423700005 0.497000009
O12 O   0.173700005 0.002999991 0.747000009
O12 O   0.826299995 0.997000009 0.252999991
O12 O   0.673700005 0.747000009 0.502999991
O12 O   0.326299995 0.252999991 0.497000009
O12 O   0.002999991 0.002999991 0.576299995
O12 O   0.997000009 0.997000009 0.423700005
O12 O   0.502999991 0.747000009 0.673700005
O12 O   0.497000009 0.252999991 0.326299995
O12 O   0.923700005 0.252999991 0.752999991
O12 O   0.076299995 0.747000009 0.247000009
O12 O   0.423700005 0.497000009 0.497000009
O12 O   0.576299995 0.502999991 0.502999991
O12 O   0.752999991 0.423700005 0.752999991
O12 O   0.247000009 0.576299995 0.247000009
O12 O   0.252999991 0.326299995 0.497000009
O12 O   0.747000009 0.673700005 0.502999991
O12 O   0.752999991 0.252999991 0.923700005
O12 O   0.247000009 0.747000009 0.076299995
O12 O   0.252999991 0.497000009 0.326299995
O12 O   0.747000009 0.502999991 0.673700005
O12 O   0.747000009 0.173700005 0.002999991
O12 O   0.252999991 0.826299995 0.997000009
O12 O   0.576299995 0.002999991 0.002999991
O12 O   0.423700005 0.997000009 0.997000009
O12 O   0.747000009 0.002999991 0.173700005
O12 O   0.252999991 0.997000009 0.826299995
O12 O   0.923700005 0.752999991 0.252999991
O12 O   0.076299995 0.247000009 0.747000009
O12 O   0.752999991 0.923700005 0.252999991
O12 O   0.247000009 0.076299995 0.747000009
O12 O   0.752999991 0.752999991 0.423700005
O12 O   0.247000009 0.247000009 0.576299995
O13 O   0.429500014 0.1796  0.25
O13 O   0.570499986 0.8204  0.75
O13 O   0.320499986 0.0704  0.75
O13 O   0.679500014 0.9296  0.25
O13 O   0.820499986 0.6796  0.5
O13 O   0.179500014 0.3204  0.5
O13 O   0.929500014 0.5704  0
O13 O   0.929500014 0.5704  1
O13 O   0.070499986 0.4296  0
O13 O   0.070499986 0.4296  1
O13 O   0.25    0.429500014 0.1796
O13 O   0.75    0.570499986 0.8204
O13 O   0.75    0.320499986 0.0704
O13 O   0.25    0.679500014 0.9296
O13 O   0.5 0.820499986 0.6796
O13 O   0.5 0.179500014 0.3204
O13 O   0   0.929500014 0.5704
O13 O   1   0.929500014 0.5704
O13 O   0   0.070499986 0.4296
O13 O   1   0.070499986 0.4296
O13 O   0.1796  0.25    0.429500014
O13 O   0.8204  0.75    0.570499986
O13 O   0.0704  0.75    0.320499986
O13 O   0.9296  0.25    0.679500014
O13 O   0.6796  0.5 0.820499986
O13 O   0.3204  0.5 0.179500014
O13 O   0.5704  0   0.929500014
O13 O   0.5704  1   0.929500014
O13 O   0.4296  0   0.070499986
O13 O   0.4296  1   0.070499986
O13 O   0.9296  0.679500014 0.25
O13 O   0.0704  0.320499986 0.75
O13 O   0.8204  0.570499986 0.75
O13 O   0.1796  0.429500014 0.25
O13 O   0.4296  0.070499986 0
O13 O   0.4296  0.070499986 1
O13 O   0.5704  0.929500014 0
O13 O   0.5704  0.929500014 1
O13 O   0.3204  0.179500014 0.5
O13 O   0.6796  0.820499986 0.5
O13 O   0.179500014 0.5 0.3204
O13 O   0.820499986 0.5 0.6796
O13 O   0.070499986 0   0.4296
O13 O   0.070499986 1   0.4296
O13 O   0.929500014 0   0.5704
O13 O   0.929500014 1   0.5704
O13 O   0.570499986 0.75    0.8204
O13 O   0.429500014 0.25    0.1796
O13 O   0.679500014 0.25    0.9296
O13 O   0.320499986 0.75    0.0704
O13 O   0   0.4296  0.070499986
O13 O   1   0.4296  0.070499986
O13 O   0   0.5704  0.929500014
O13 O   1   0.5704  0.929500014
O13 O   0.5 0.3204  0.179500014
O13 O   0.5 0.6796  0.820499986
O13 O   0.25    0.9296  0.679500014
O13 O   0.75    0.0704  0.320499986
O13 O   0.75    0.8204  0.570499986
O13 O   0.25    0.1796  0.429500014
O13 O   0.429500014 0.6796  0.75
O13 O   0.570499986 0.3204  0.25
O13 O   0.320499986 0.5704  0.25
O13 O   0.679500014 0.4296  0.75
O13 O   0.820499986 0.1796  0
O13 O   0.820499986 0.1796  1
O13 O   0.179500014 0.8204  0
O13 O   0.179500014 0.8204  1
O13 O   0.929500014 0.0704  0.5
O13 O   0.070499986 0.9296  0.5
O13 O   0.1796  0.75    0.929500014
O13 O   0.8204  0.25    0.070499986
O13 O   0.0704  0.25    0.820499986
O13 O   0.9296  0.75    0.179500014
O13 O   0.6796  0   0.320499986
O13 O   0.6796  1   0.320499986
O13 O   0.3204  0   0.679500014
O13 O   0.3204  1   0.679500014
O13 O   0.5704  0.5 0.429500014
O13 O   0.4296  0.5 0.570499986
O13 O   0.9296  0.179500014 0.75
O13 O   0.0704  0.820499986 0.25
O13 O   0.8204  0.070499986 0.25
O13 O   0.1796  0.929500014 0.75
O13 O   0.4296  0.570499986 0.5
O13 O   0.5704  0.429500014 0.5
O13 O   0.3204  0.679500014 0
O13 O   0.3204  0.679500014 1
O13 O   0.6796  0.320499986 0
O13 O   0.6796  0.320499986 1
O13 O   0.179500014 0   0.8204
O13 O   0.179500014 1   0.8204
O13 O   0.820499986 0   0.1796
O13 O   0.820499986 1   0.1796
O13 O   0.070499986 0.5 0.9296
O13 O   0.929500014 0.5 0.0704
O13 O   0.570499986 0.25    0.3204
O13 O   0.429500014 0.75    0.6796
O13 O   0.679500014 0.75    0.4296
O13 O   0.320499986 0.25    0.5704
O13 O   0.75    0.429500014 0.6796
O13 O   0.25    0.570499986 0.3204
O13 O   0.25    0.320499986 0.5704
O13 O   0.75    0.679500014 0.4296
O13 O   0   0.820499986 0.1796
O13 O   1   0.820499986 0.1796
O13 O   0   0.179500014 0.8204
O13 O   1   0.179500014 0.8204
O13 O   0.5 0.929500014 0.0704
O13 O   0.5 0.070499986 0.9296
O13 O   0.5 0.4296  0.570499986
O13 O   0.5 0.5704  0.429500014
O13 O   0   0.3204  0.679500014
O13 O   1   0.3204  0.679500014
O13 O   0   0.6796  0.320499986
O13 O   1   0.6796  0.320499986
O13 O   0.75    0.9296  0.179500014
O13 O   0.25    0.0704  0.820499986
O13 O   0.25    0.8204  0.070499986
O13 O   0.75    0.1796  0.929500014
O4  O   0.660400003 0.589599997 -0.008700013
O3  O   0.711799994 0.636699997 -0.033100009
O3  O   0.288200006 0.363300003 1.033100009
O4  O   0.339599997 0.410400003 1.008700013
O4  O   -0.008700013    0.660400003 0.589599997
O3  O   -0.033100009    0.711799994 0.636699997
O3  O   1.033100009 0.288200006 0.363300003
O4  O   1.008700013 0.339599997 0.410400003
O4  O   0.589599997 -0.008700013    0.660400003
O3  O   0.636699997 -0.033100009    0.711799994
O3  O   0.363300003 1.033100009 0.288200006
O4  O   0.410400003 1.008700013 0.339599997
O3  O   0.363300003 0.288200006 1.033100009
O4  O   0.410400003 0.339599997 1.008700013
O4  O   0.589599997 0.660400003 -0.008700013
O3  O   0.636699997 0.711799994 -0.033100009
O3  O   0.288200006 1.033100009 0.363300003
O4  O   0.339599997 1.008700013 0.410400003
O4  O   0.660400003 -0.008700013    0.589599997
O3  O   0.711799994 -0.033100009    0.636699997
O3  O   1.033100009 0.363300003 0.288200006
O4  O   1.008700013 0.410400003 0.339599997
O4  O   -0.008700013    0.589599997 0.660400003
O3  O   -0.033100009    0.636699997 0.711799994
O3  O   0.038200006 0.113300003 -0.033100009
O4  O   0.089599997 0.160400003 -0.008700013
O4  O   0.910400003 0.839599997 1.008700013
O3  O   0.961799994 0.886699997 1.033100009
O4  O   -0.008700013    0.160400003 0.089599997
O3  O   -0.033100009    0.211799994 0.136699997
O3  O   1.033100009 0.788200006 0.863300003
O4  O   1.008700013 0.839599997 0.910400003
O3  O   0.613300003 -0.033100009    0.538200006
O3  O   0.386699997 1.033100009 0.461799994
O3  O   0.386699997 0.461799994 1.033100009
O3  O   0.613300003 0.538200006 -0.033100009
O4  O   0.910400003 1.008700013 0.839599997
O3  O   0.961799994 1.033100009 0.886699997
O3  O   0.038200006 -0.033100009    0.113300003
O4  O   0.089599997 -0.008700013    0.160400003
O3  O   1.033100009 0.863300003 0.788200006
O4  O   1.008700013 0.910400003 0.839599997
O4  O   -0.008700013    0.089599997 0.160400003
O3  O   -0.033100009    0.136699997 0.211799994
O3  O   0.538200006 0.613300003 -0.033100009
O3  O   0.461799994 0.386699997 1.033100009
O3  O   -0.033100009    0.038200006 0.113300003
O3  O   1.033100009 0.961799994 0.886699997
O3  O   0.136699997 -0.033100009    0.211799994
O3  O   0.863300003 1.033100009 0.788200006
O4  O   0.839599997 0.910400003 1.008700013
O3  O   0.886699997 0.961799994 1.033100009
O3  O   0.113300003 0.038200006 -0.033100009
O4  O   0.160400003 0.089599997 -0.008700013
O3  O   0.788200006 1.033100009 0.863300003
O4  O   0.839599997 1.008700013 0.910400003
O4  O   0.160400003 -0.008700013    0.089599997
O3  O   0.211799994 -0.033100009    0.136699997
O3  O   1.033100009 0.386699997 0.461799994
O3  O   -0.033100009    0.613300003 0.538200006
O3  O   0.211799994 0.136699997 -0.033100009
O3  O   0.788200006 0.863300003 1.033100009
O3  O   -0.033100009    0.538200006 0.613300003
O3  O   1.033100009 0.461799994 0.386699997
O3  O   0.113300003 -0.033100009    0.038200006
O3  O   0.886699997 1.033100009 0.961799994
O3  O   0.863300003 0.788200006 1.033100009
O3  O   0.136699997 0.211799994 -0.033100009
O3  O   0.461799994 1.033100009 0.386699997
O3  O   0.538200006 -0.033100009    0.613300003
O3  O   1.033100009 0.886699997 0.961799994
O3  O   -0.033100009    0.113300003 0.038200006
O6  O   0.785100013 0.627999999 -0.035100013
O6  O   0.214899987 0.372000001 1.035100013
O6  O   -0.035100013    0.785100013 0.627999999
O6  O   1.035100013 0.214899987 0.372000001
O6  O   0.627999999 -0.035100013    0.785100013
O6  O   0.372000001 1.035100013 0.214899987
O6  O   0.372000001 0.214899987 1.035100013
O6  O   0.627999999 0.785100013 -0.035100013
O6  O   0.214899987 1.035100013 0.372000001
O6  O   0.785100013 -0.035100013    0.627999999
O6  O   1.035100013 0.372000001 0.214899987
O6  O   -0.035100013    0.627999999 0.785100013
O6  O   0.964899987 0.122000001 -0.035100013
O6  O   0.035100013 0.877999999 1.035100013
O6  O   -0.035100013    0.285100013 0.127999999
O6  O   1.035100013 0.714899987 0.872000001
O6  O   0.622000001 -0.035100013    0.464899987
O6  O   0.377999999 1.035100013 0.535100013
O6  O   0.377999999 0.535100013 1.035100013
O6  O   0.622000001 0.464899987 -0.035100013
O6  O   0.035100013 1.035100013 0.877999999
O6  O   0.964899987 -0.035100013    0.122000001
O6  O   1.035100013 0.872000001 0.714899987
O6  O   -0.035100013    0.127999999 0.285100013
O6  O   0.464899987 0.622000001 -0.035100013
O6  O   0.535100013 0.377999999 1.035100013
O6  O   -0.035100013    0.964899987 0.122000001
O6  O   1.035100013 0.035100013 0.877999999
O6  O   0.127999999 -0.035100013    0.285100013
O6  O   0.872000001 1.035100013 0.714899987
O6  O   0.877999999 0.035100013 1.035100013
O6  O   0.122000001 0.964899987 -0.035100013
O6  O   0.714899987 1.035100013 0.872000001
O6  O   0.285100013 -0.035100013    0.127999999
O6  O   1.035100013 0.377999999 0.535100013
O6  O   -0.035100013    0.622000001 0.464899987
O6  O   0.285100013 0.127999999 -0.035100013
O6  O   0.714899987 0.872000001 1.035100013
O6  O   -0.035100013    0.464899987 0.622000001
O6  O   1.035100013 0.535100013 0.377999999
O6  O   0.122000001 -0.035100013    0.964899987
O6  O   0.877999999 1.035100013 0.035100013
O6  O   0.872000001 0.714899987 1.035100013
O6  O   0.127999999 0.285100013 -0.035100013
O6  O   0.535100013 1.035100013 0.377999999
O6  O   0.464899987 -0.035100013    0.622000001
O6  O   1.035100013 0.877999999 0.035100013
O6  O   -0.035100013    0.122000001 0.964899987
O7  O   1.008200005 0.664499998 0.423000008
O10 O   1.012600005 0.737399995 0.433800012
O10 O   -0.012600005    0.262600005 0.566199988
O7  O   -0.008200005    0.335500002 0.576999992
O7  O   0.423000008 1.008200005 0.664499998
O10 O   0.433800012 1.012600005 0.737399995
O10 O   0.566199988 -0.012600005    0.262600005
O7  O   0.576999992 -0.008200005    0.335500002
O7  O   0.664499998 0.423000008 1.008200005
O10 O   0.737399995 0.433800012 1.012600005
O10 O   0.262600005 0.566199988 -0.012600005
O7  O   0.335500002 0.576999992 -0.008200005
O10 O   0.262600005 -0.012600005    0.566199988
O7  O   0.335500002 -0.008200005    0.576999992
O7  O   0.664499998 1.008200005 0.423000008
O10 O   0.737399995 1.012600005 0.433800012
O10 O   -0.012600005    0.566199988 0.262600005
O7  O   -0.008200005    0.576999992 0.335500002
O7  O   1.008200005 0.423000008 0.664499998
O10 O   1.012600005 0.433800012 0.737399995
O10 O   0.566199988 0.262600005 -0.012600005
O7  O   0.576999992 0.335500002 -0.008200005
O7  O   0.423000008 0.664499998 1.008200005
O10 O   0.433800012 0.737399995 1.012600005
O7  O   1.008200005 0.164499998 0.923000008
O10 O   1.012600005 0.237399995 0.933800012
O10 O   -0.012600005    0.762600005 0.066199988
O7  O   -0.008200005    0.835500002 0.076999992
O10 O   0.816199988 1.012600005 0.512600005
O7  O   0.826999992 1.008200005 0.585500002
O7  O   0.173000008 -0.008200005    0.414499998
O10 O   0.183800012 -0.012600005    0.487399995
O10 O   0.012600005 0.316199988 1.012600005
O7  O   0.085500002 0.326999992 1.008200005
O7  O   0.914499998 0.673000008 -0.008200005
O10 O   0.987399995 0.683800012 -0.012600005
O7  O   0.914499998 -0.008200005    0.673000008
O10 O   0.987399995 -0.012600005    0.683800012
O10 O   0.012600005 1.012600005 0.316199988
O7  O   0.085500002 1.008200005 0.326999992
O10 O   -0.012600005    0.066199988 0.762600005
O7  O   -0.008200005    0.076999992 0.835500002
O7  O   1.008200005 0.923000008 0.164499998
O10 O   1.012600005 0.933800012 0.237399995
O7  O   0.173000008 0.414499998 -0.008200005
O10 O   0.183800012 0.487399995 -0.012600005
O10 O   0.816199988 0.512600005 1.012600005
O7  O   0.826999992 0.585500002 1.008200005
O10 O   1.012600005 0.012600005 0.316199988
O7  O   1.008200005 0.085500002 0.326999992
O7  O   -0.008200005    0.914499998 0.673000008
O10 O   -0.012600005    0.987399995 0.683800012
O7  O   0.923000008 1.008200005 0.164499998
O10 O   0.933800012 1.012600005 0.237399995
O10 O   0.066199988 -0.012600005    0.762600005
O7  O   0.076999992 -0.008200005    0.835500002
O10 O   0.512600005 0.816199988 1.012600005
O7  O   0.585500002 0.826999992 1.008200005
O7  O   0.414499998 0.173000008 -0.008200005
O10 O   0.487399995 0.183800012 -0.012600005
O10 O   0.762600005 -0.012600005    0.066199988
O7  O   0.835500002 -0.008200005    0.076999992
O7  O   0.164499998 1.008200005 0.923000008
O10 O   0.237399995 1.012600005 0.933800012
O7  O   -0.008200005    0.173000008 0.414499998
O10 O   -0.012600005    0.183800012 0.487399995
O10 O   1.012600005 0.816199988 0.512600005
O7  O   1.008200005 0.826999992 0.585500002
O7  O   0.673000008 0.914499998 -0.008200005
O10 O   0.683800012 0.987399995 -0.012600005
O10 O   0.316199988 0.012600005 1.012600005
O7  O   0.326999992 0.085500002 1.008200005
O10 O   1.012600005 0.512600005 0.816199988
O7  O   1.008200005 0.585500002 0.826999992
O7  O   -0.008200005    0.414499998 0.173000008
O10 O   -0.012600005    0.487399995 0.183800012
O10 O   0.316199988 1.012600005 0.012600005
O7  O   0.326999992 1.008200005 0.085500002
O7  O   0.673000008 -0.008200005    0.914499998
O10 O   0.683800012 -0.012600005    0.987399995
O7  O   0.164499998 0.923000008 1.008200005
O10 O   0.237399995 0.933800012 1.012600005
O10 O   0.762600005 0.066199988 -0.012600005
O7  O   0.835500002 0.076999992 -0.008200005
O7  O   0.414499998 -0.008200005    0.173000008
O10 O   0.487399995 -0.012600005    0.183800012
O10 O   0.512600005 1.012600005 0.816199988
O7  O   0.585500002 1.008200005 0.826999992
O7  O   -0.008200005    0.673000008 0.914499998
O10 O   -0.012600005    0.683800012 0.987399995
O10 O   1.012600005 0.316199988 0.012600005
O7  O   1.008200005 0.326999992 0.085500002
O10 O   0.066199988 0.762600005 -0.012600005
O7  O   0.076999992 0.835500002 -0.008200005
O7  O   0.923000008 0.164499998 1.008200005
O10 O   0.933800012 0.237399995 1.012600005
O12 O   0.326299995 -0.002999991    0.752999991
O12 O   0.673700005 1.002999991 0.247000009
O12 O   0.752999991 0.326299995 -0.002999991
O12 O   0.247000009 0.673700005 1.002999991
O12 O   -0.002999991    0.752999991 0.326299995
O12 O   1.002999991 0.247000009 0.673700005
O12 O   1.002999991 0.673700005 0.247000009
O12 O   -0.002999991    0.326299995 0.752999991
O12 O   0.673700005 0.247000009 1.002999991
O12 O   0.326299995 0.752999991 -0.002999991
O12 O   0.247000009 1.002999991 0.673700005
O12 O   0.752999991 -0.002999991    0.326299995
O12 O   0.923700005 -0.002999991    0.497000009
O12 O   0.076299995 1.002999991 0.502999991
O12 O   0.997000009 0.423700005 -0.002999991
O12 O   0.002999991 0.576299995 1.002999991
O12 O   -0.002999991    0.252999991 0.826299995
O12 O   1.002999991 0.747000009 0.173700005
O12 O   1.002999991 0.173700005 0.747000009
O12 O   -0.002999991    0.826299995 0.252999991
O12 O   0.076299995 0.502999991 1.002999991
O12 O   0.923700005 0.497000009 -0.002999991
O12 O   0.002999991 1.002999991 0.576299995
O12 O   0.997000009 -0.002999991    0.423700005
O12 O   0.826299995 -0.002999991    0.252999991
O12 O   0.173700005 1.002999991 0.747000009
O12 O   0.497000009 0.923700005 -0.002999991
O12 O   0.502999991 0.076299995 1.002999991
O12 O   -0.002999991    0.997000009 0.423700005
O12 O   1.002999991 0.002999991 0.576299995
O12 O   1.002999991 0.076299995 0.502999991
O12 O   -0.002999991    0.923700005 0.497000009
O12 O   0.576299995 0.002999991 1.002999991
O12 O   0.423700005 0.997000009 -0.002999991
O12 O   0.747000009 1.002999991 0.173700005
O12 O   0.252999991 -0.002999991    0.826299995
O12 O   0.423700005 -0.002999991    0.997000009
O12 O   0.576299995 1.002999991 0.002999991
O12 O   0.252999991 0.826299995 -0.002999991
O12 O   0.747000009 0.173700005 1.002999991
O12 O   -0.002999991    0.497000009 0.923700005
O12 O   1.002999991 0.502999991 0.076299995
O12 O   1.002999991 0.576299995 0.002999991
O12 O   -0.002999991    0.423700005 0.997000009
O12 O   0.173700005 0.747000009 1.002999991
O12 O   0.826299995 0.252999991 -0.002999991
O12 O   0.502999991 1.002999991 0.076299995
O12 O   0.497000009 -0.002999991    0.923700005
T1  Si  0.186199993 0.125   0.247700006
T1  Si  0.813800007 0.875   0.752299994
T1  Si  0.563800007 0.125   0.747700006
T1  Si  0.436199993 0.875   0.252299994
T1  Si  0.063800007 0.625   0.502299994
T1  Si  0.936199993 0.375   0.497700006
T1  Si  0.686199993 0.625   0.002299994
T1  Si  0.313800007 0.375   0.997700006
T1  Si  0.247700006 0.186199993 0.125
T1  Si  0.752299994 0.813800007 0.875
T1  Si  0.747700006 0.563800007 0.125
T1  Si  0.252299994 0.436199993 0.875
T1  Si  0.502299994 0.063800007 0.625
T1  Si  0.497700006 0.936199993 0.375
T1  Si  0.002299994 0.686199993 0.625
T1  Si  0.997700006 0.313800007 0.375
T1  Si  0.125   0.247700006 0.186199993
T1  Si  0.875   0.752299994 0.813800007
T1  Si  0.125   0.747700006 0.563800007
T1  Si  0.875   0.252299994 0.436199993
T1  Si  0.625   0.502299994 0.063800007
T1  Si  0.375   0.497700006 0.936199993
T1  Si  0.625   0.002299994 0.686199993
T1  Si  0.375   0.997700006 0.313800007
T1  Si  0.875   0.436199993 0.252299994
T1  Si  0.125   0.563800007 0.747700006
T1  Si  0.875   0.813800007 0.752299994
T1  Si  0.125   0.186199993 0.247700006
T1  Si  0.375   0.313800007 0.997700006
T1  Si  0.625   0.686199993 0.002299994
T1  Si  0.375   0.936199993 0.497700006
T1  Si  0.625   0.063800007 0.502299994
T1  Si  0.936199993 0.497700006 0.375
T1  Si  0.063800007 0.502299994 0.625
T1  Si  0.313800007 0.997700006 0.375
T1  Si  0.686199993 0.002299994 0.625
T1  Si  0.813800007 0.752299994 0.875
T1  Si  0.186199993 0.247700006 0.125
T1  Si  0.436199993 0.252299994 0.875
T1  Si  0.563800007 0.747700006 0.125
T1  Si  0.997700006 0.375   0.313800007
T1  Si  0.002299994 0.625   0.686199993
T1  Si  0.497700006 0.375   0.936199993
T1  Si  0.502299994 0.625   0.063800007
T1  Si  0.252299994 0.875   0.436199993
T1  Si  0.747700006 0.125   0.563800007
T1  Si  0.752299994 0.875   0.813800007
T1  Si  0.247700006 0.125   0.186199993
T1  Si  0.186199993 0.625   0.747700006
T1  Si  0.813800007 0.375   0.252299994
T1  Si  0.563800007 0.625   0.247700006
T1  Si  0.436199993 0.375   0.752299994
T1  Si  0.063800007 0.125   0.002299994
T1  Si  0.936199993 0.875   0.997700006
T1  Si  0.686199993 0.125   0.502299994
T1  Si  0.313800007 0.875   0.497700006
T1  Si  0.247700006 0.686199993 0.625
T1  Si  0.752299994 0.313800007 0.375
T1  Si  0.747700006 0.063800007 0.625
T1  Si  0.252299994 0.936199993 0.375
T1  Si  0.502299994 0.563800007 0.125
T1  Si  0.497700006 0.436199993 0.875
T1  Si  0.002299994 0.186199993 0.125
T1  Si  0.997700006 0.813800007 0.875
T1  Si  0.125   0.747700006 0.686199993
T1  Si  0.875   0.252299994 0.313800007
T1  Si  0.125   0.247700006 0.063800007
T1  Si  0.875   0.752299994 0.936199993
T1  Si  0.625   0.002299994 0.563800007
T1  Si  0.375   0.997700006 0.436199993
T1  Si  0.625   0.502299994 0.186199993
T1  Si  0.375   0.497700006 0.813800007
T1  Si  0.875   0.936199993 0.752299994
T1  Si  0.125   0.063800007 0.247700006
T1  Si  0.875   0.313800007 0.252299994
T1  Si  0.125   0.686199993 0.747700006
T1  Si  0.375   0.813800007 0.497700006
T1  Si  0.625   0.186199993 0.502299994
T1  Si  0.375   0.436199993 0.997700006
T1  Si  0.625   0.563800007 0.002299994
T1  Si  0.936199993 0.997700006 0.875
T1  Si  0.063800007 0.002299994 0.125
T1  Si  0.313800007 0.497700006 0.875
T1  Si  0.686199993 0.502299994 0.125
T1  Si  0.813800007 0.252299994 0.375
T1  Si  0.186199993 0.747700006 0.625
T1  Si  0.436199993 0.752299994 0.375
T1  Si  0.563800007 0.247700006 0.625
T1  Si  0.997700006 0.875   0.813800007
T1  Si  0.002299994 0.125   0.186199993
T1  Si  0.497700006 0.875   0.436199993
T1  Si  0.502299994 0.125   0.563800007
T1  Si  0.252299994 0.375   0.936199993
T1  Si  0.747700006 0.625   0.063800007
T1  Si  0.752299994 0.375   0.313800007
T1  Si  0.247700006 0.625   0.686199993
T1  Si  0.686199993 0.125   0.747700006
T1  Si  0.313800007 0.875   0.252299994
T1  Si  0.063800007 0.125   0.247700006
T1  Si  0.936199993 0.875   0.752299994
T1  Si  0.563800007 0.625   0.002299994
T1  Si  0.436199993 0.375   0.997700006
T1  Si  0.186199993 0.625   0.502299994
T1  Si  0.813800007 0.375   0.497700006
T1  Si  0.747700006 0.186199993 0.625
T1  Si  0.252299994 0.813800007 0.375
T1  Si  0.247700006 0.563800007 0.625
T1  Si  0.752299994 0.436199993 0.375
T1  Si  0.002299994 0.063800007 0.125
T1  Si  0.997700006 0.936199993 0.875
T1  Si  0.502299994 0.686199993 0.125
T1  Si  0.497700006 0.313800007 0.875
T1  Si  0.625   0.247700006 0.686199993
T1  Si  0.375   0.752299994 0.313800007
T1  Si  0.625   0.747700006 0.063800007
T1  Si  0.375   0.252299994 0.936199993
T1  Si  0.125   0.502299994 0.563800007
T1  Si  0.875   0.497700006 0.436199993
T1  Si  0.125   0.002299994 0.186199993
T1  Si  0.875   0.997700006 0.813800007
T1  Si  0.375   0.436199993 0.752299994
T1  Si  0.625   0.563800007 0.247700006
T1  Si  0.375   0.813800007 0.252299994
T1  Si  0.625   0.186199993 0.747700006
T1  Si  0.875   0.313800007 0.497700006
T1  Si  0.125   0.686199993 0.502299994
T1  Si  0.875   0.936199993 0.997700006
T1  Si  0.125   0.063800007 0.002299994
T1  Si  0.436199993 0.497700006 0.875
T1  Si  0.563800007 0.502299994 0.125
T1  Si  0.813800007 0.997700006 0.875
T1  Si  0.186199993 0.002299994 0.125
T1  Si  0.313800007 0.752299994 0.375
T1  Si  0.686199993 0.247700006 0.625
T1  Si  0.936199993 0.252299994 0.375
T1  Si  0.063800007 0.747700006 0.625
T1  Si  0.497700006 0.375   0.813800007
T1  Si  0.502299994 0.625   0.186199993
T1  Si  0.997700006 0.375   0.436199993
T1  Si  0.002299994 0.625   0.563800007
T1  Si  0.752299994 0.875   0.936199993
T1  Si  0.247700006 0.125   0.063800007
T1  Si  0.252299994 0.875   0.313800007
T1  Si  0.747700006 0.125   0.686199993
T1  Si  0.686199993 0.625   0.247700006
T1  Si  0.313800007 0.375   0.752299994
T1  Si  0.063800007 0.625   0.747700006
T1  Si  0.936199993 0.375   0.252299994
T1  Si  0.563800007 0.125   0.502299994
T1  Si  0.436199993 0.875   0.497700006
T1  Si  0.186199993 0.125   0.002299994
T1  Si  0.813800007 0.875   0.997700006
T1  Si  0.747700006 0.686199993 0.125
T1  Si  0.252299994 0.313800007 0.875
T1  Si  0.247700006 0.063800007 0.125
T1  Si  0.752299994 0.936199993 0.875
T1  Si  0.002299994 0.563800007 0.625
T1  Si  0.997700006 0.436199993 0.375
T1  Si  0.502299994 0.186199993 0.625
T1  Si  0.497700006 0.813800007 0.375
T1  Si  0.625   0.747700006 0.186199993
T1  Si  0.375   0.252299994 0.813800007
T1  Si  0.625   0.247700006 0.563800007
T1  Si  0.375   0.752299994 0.436199993
T1  Si  0.125   0.002299994 0.063800007
T1  Si  0.875   0.997700006 0.936199993
T1  Si  0.125   0.502299994 0.686199993
T1  Si  0.875   0.497700006 0.313800007
T1  Si  0.375   0.936199993 0.252299994
T1  Si  0.625   0.063800007 0.747700006
T1  Si  0.375   0.313800007 0.752299994
T1  Si  0.625   0.686199993 0.247700006
T1  Si  0.875   0.813800007 0.997700006
T1  Si  0.125   0.186199993 0.002299994
T1  Si  0.875   0.436199993 0.497700006
T1  Si  0.125   0.563800007 0.502299994
T1  Si  0.436199993 0.997700006 0.375
T1  Si  0.563800007 0.002299994 0.625
T1  Si  0.813800007 0.497700006 0.375
T1  Si  0.186199993 0.502299994 0.625
T1  Si  0.313800007 0.252299994 0.875
T1  Si  0.686199993 0.747700006 0.125
T1  Si  0.936199993 0.752299994 0.875
T1  Si  0.063800007 0.247700006 0.125
T1  Si  0.497700006 0.875   0.313800007
T1  Si  0.502299994 0.125   0.686199993
T1  Si  0.997700006 0.875   0.936199993
T1  Si  0.002299994 0.125   0.063800007
T1  Si  0.752299994 0.375   0.436199993
T1  Si  0.247700006 0.625   0.563800007
T1  Si  0.252299994 0.375   0.813800007
T1  Si  0.747700006 0.625   0.186199993
T2  Si  0.309500009 0.123099998 0.247099996
T2  Si  0.690499991 0.876900002 0.752900004
T2  Si  0.440499991 0.126900002 0.747099996
T2  Si  0.559500009 0.873099998 0.252900004
T2  Si  0.940499991 0.623099998 0.502900004
T2  Si  0.059500009 0.376900002 0.497099996
T2  Si  0.809500009 0.626900002 0.002900004
T2  Si  0.190499991 0.373099998 0.997099996
T2  Si  0.247099996 0.309500009 0.123099998
T2  Si  0.752900004 0.690499991 0.876900002
T2  Si  0.747099996 0.440499991 0.126900002
T2  Si  0.252900004 0.559500009 0.873099998
T2  Si  0.502900004 0.940499991 0.623099998
T2  Si  0.497099996 0.059500009 0.376900002
T2  Si  0.002900004 0.809500009 0.626900002
T2  Si  0.997099996 0.190499991 0.373099998
T2  Si  0.123099998 0.247099996 0.309500009
T2  Si  0.876900002 0.752900004 0.690499991
T2  Si  0.126900002 0.747099996 0.440499991
T2  Si  0.873099998 0.252900004 0.559500009
T2  Si  0.623099998 0.502900004 0.940499991
T2  Si  0.376900002 0.497099996 0.059500009
T2  Si  0.626900002 0.002900004 0.809500009
T2  Si  0.373099998 0.997099996 0.190499991
T2  Si  0.873099998 0.559500009 0.252900004
T2  Si  0.126900002 0.440499991 0.747099996
T2  Si  0.876900002 0.690499991 0.752900004
T2  Si  0.123099998 0.309500009 0.247099996
T2  Si  0.373099998 0.190499991 0.997099996
T2  Si  0.626900002 0.809500009 0.002900004
T2  Si  0.376900002 0.059500009 0.497099996
T2  Si  0.623099998 0.940499991 0.502900004
T2  Si  0.059500009 0.497099996 0.376900002
T2  Si  0.940499991 0.502900004 0.623099998
T2  Si  0.190499991 0.997099996 0.373099998
T2  Si  0.809500009 0.002900004 0.626900002
T2  Si  0.690499991 0.752900004 0.876900002
T2  Si  0.309500009 0.247099996 0.123099998
T2  Si  0.559500009 0.252900004 0.873099998
T2  Si  0.440499991 0.747099996 0.126900002
T2  Si  0.997099996 0.373099998 0.190499991
T2  Si  0.002900004 0.626900002 0.809500009
T2  Si  0.497099996 0.376900002 0.059500009
T2  Si  0.502900004 0.623099998 0.940499991
T2  Si  0.252900004 0.873099998 0.559500009
T2  Si  0.747099996 0.126900002 0.440499991
T2  Si  0.752900004 0.876900002 0.690499991
T2  Si  0.247099996 0.123099998 0.309500009
T2  Si  0.309500009 0.623099998 0.747099996
T2  Si  0.690499991 0.376900002 0.252900004
T2  Si  0.440499991 0.626900002 0.247099996
T2  Si  0.559500009 0.373099998 0.752900004
T2  Si  0.940499991 0.123099998 0.002900004
T2  Si  0.059500009 0.876900002 0.997099996
T2  Si  0.809500009 0.126900002 0.502900004
T2  Si  0.190499991 0.873099998 0.497099996
T2  Si  0.247099996 0.809500009 0.623099998
T2  Si  0.752900004 0.190499991 0.376900002
T2  Si  0.747099996 0.940499991 0.626900002
T2  Si  0.252900004 0.059500009 0.373099998
T2  Si  0.502900004 0.440499991 0.123099998
T2  Si  0.497099996 0.559500009 0.876900002
T2  Si  0.002900004 0.309500009 0.126900002
T2  Si  0.997099996 0.690499991 0.873099998
T2  Si  0.123099998 0.747099996 0.809500009
T2  Si  0.876900002 0.252900004 0.190499991
T2  Si  0.126900002 0.247099996 0.940499991
T2  Si  0.873099998 0.752900004 0.059500009
T2  Si  0.623099998 0.002900004 0.440499991
T2  Si  0.376900002 0.997099996 0.559500009
T2  Si  0.626900002 0.502900004 0.309500009
T2  Si  0.373099998 0.497099996 0.690499991
T2  Si  0.873099998 0.059500009 0.752900004
T2  Si  0.126900002 0.940499991 0.247099996
T2  Si  0.876900002 0.190499991 0.252900004
T2  Si  0.123099998 0.809500009 0.747099996
T2  Si  0.373099998 0.690499991 0.497099996
T2  Si  0.626900002 0.309500009 0.502900004
T2  Si  0.376900002 0.559500009 0.997099996
T2  Si  0.623099998 0.440499991 0.002900004
T2  Si  0.059500009 0.997099996 0.876900002
T2  Si  0.940499991 0.002900004 0.123099998
T2  Si  0.190499991 0.497099996 0.873099998
T2  Si  0.809500009 0.502900004 0.126900002
T2  Si  0.690499991 0.252900004 0.376900002
T2  Si  0.309500009 0.747099996 0.623099998
T2  Si  0.559500009 0.752900004 0.373099998
T2  Si  0.440499991 0.247099996 0.626900002
T2  Si  0.997099996 0.873099998 0.690499991
T2  Si  0.002900004 0.126900002 0.309500009
T2  Si  0.497099996 0.876900002 0.559500009
T2  Si  0.502900004 0.123099998 0.440499991
T2  Si  0.252900004 0.373099998 0.059500009
T2  Si  0.747099996 0.626900002 0.940499991
T2  Si  0.752900004 0.376900002 0.190499991
T2  Si  0.247099996 0.623099998 0.809500009
T2  Si  0.809500009 0.123099998 0.747099996
T2  Si  0.190499991 0.876900002 0.252900004
T2  Si  0.940499991 0.126900002 0.247099996
T2  Si  0.059500009 0.873099998 0.752900004
T2  Si  0.440499991 0.623099998 0.002900004
T2  Si  0.559500009 0.376900002 0.997099996
T2  Si  0.309500009 0.626900002 0.502900004
T2  Si  0.690499991 0.373099998 0.497099996
T2  Si  0.747099996 0.309500009 0.623099998
T2  Si  0.252900004 0.690499991 0.376900002
T2  Si  0.247099996 0.440499991 0.626900002
T2  Si  0.752900004 0.559500009 0.373099998
T2  Si  0.002900004 0.940499991 0.123099998
T2  Si  0.997099996 0.059500009 0.876900002
T2  Si  0.502900004 0.809500009 0.126900002
T2  Si  0.497099996 0.190499991 0.873099998
T2  Si  0.623099998 0.247099996 0.809500009
T2  Si  0.376900002 0.752900004 0.190499991
T2  Si  0.626900002 0.747099996 0.940499991
T2  Si  0.373099998 0.252900004 0.059500009
T2  Si  0.123099998 0.502900004 0.440499991
T2  Si  0.876900002 0.497099996 0.559500009
T2  Si  0.126900002 0.002900004 0.309500009
T2  Si  0.873099998 0.997099996 0.690499991
T2  Si  0.373099998 0.559500009 0.752900004
T2  Si  0.626900002 0.440499991 0.247099996
T2  Si  0.376900002 0.690499991 0.252900004
T2  Si  0.623099998 0.309500009 0.747099996
T2  Si  0.873099998 0.190499991 0.497099996
T2  Si  0.126900002 0.809500009 0.502900004
T2  Si  0.876900002 0.059500009 0.997099996
T2  Si  0.123099998 0.940499991 0.002900004
T2  Si  0.559500009 0.497099996 0.876900002
T2  Si  0.440499991 0.502900004 0.123099998
T2  Si  0.690499991 0.997099996 0.873099998
T2  Si  0.309500009 0.002900004 0.126900002
T2  Si  0.190499991 0.752900004 0.376900002
T2  Si  0.809500009 0.247099996 0.623099998
T2  Si  0.059500009 0.252900004 0.373099998
T2  Si  0.940499991 0.747099996 0.626900002
T2  Si  0.497099996 0.373099998 0.690499991
T2  Si  0.502900004 0.626900002 0.309500009
T2  Si  0.997099996 0.376900002 0.559500009
T2  Si  0.002900004 0.623099998 0.440499991
T2  Si  0.752900004 0.873099998 0.059500009
T2  Si  0.247099996 0.126900002 0.940499991
T2  Si  0.252900004 0.876900002 0.190499991
T2  Si  0.747099996 0.123099998 0.809500009
T2  Si  0.809500009 0.623099998 0.247099996
T2  Si  0.190499991 0.376900002 0.752900004
T2  Si  0.940499991 0.626900002 0.747099996
T2  Si  0.059500009 0.373099998 0.252900004
T2  Si  0.440499991 0.123099998 0.502900004
T2  Si  0.559500009 0.876900002 0.497099996
T2  Si  0.309500009 0.126900002 0.002900004
T2  Si  0.690499991 0.873099998 0.997099996
T2  Si  0.747099996 0.809500009 0.123099998
T2  Si  0.252900004 0.190499991 0.876900002
T2  Si  0.247099996 0.940499991 0.126900002
T2  Si  0.752900004 0.059500009 0.873099998
T2  Si  0.002900004 0.440499991 0.623099998
T2  Si  0.997099996 0.559500009 0.376900002
T2  Si  0.502900004 0.309500009 0.626900002
T2  Si  0.497099996 0.690499991 0.373099998
T2  Si  0.623099998 0.747099996 0.309500009
T2  Si  0.376900002 0.252900004 0.690499991
T2  Si  0.626900002 0.247099996 0.440499991
T2  Si  0.373099998 0.752900004 0.559500009
T2  Si  0.123099998 0.002900004 0.940499991
T2  Si  0.876900002 0.997099996 0.059500009
T2  Si  0.126900002 0.502900004 0.809500009
T2  Si  0.873099998 0.497099996 0.190499991
T2  Si  0.373099998 0.059500009 0.252900004
T2  Si  0.626900002 0.940499991 0.747099996
T2  Si  0.376900002 0.190499991 0.752900004
T2  Si  0.623099998 0.809500009 0.247099996
T2  Si  0.873099998 0.690499991 0.997099996
T2  Si  0.126900002 0.309500009 0.002900004
T2  Si  0.876900002 0.559500009 0.497099996
T2  Si  0.123099998 0.440499991 0.502900004
T2  Si  0.559500009 0.997099996 0.376900002
T2  Si  0.440499991 0.002900004 0.623099998
T2  Si  0.690499991 0.497099996 0.373099998
T2  Si  0.309500009 0.502900004 0.626900002
T2  Si  0.190499991 0.252900004 0.876900002
T2  Si  0.809500009 0.747099996 0.123099998
T2  Si  0.059500009 0.752900004 0.873099998
T2  Si  0.940499991 0.247099996 0.126900002
T2  Si  0.497099996 0.873099998 0.190499991
T2  Si  0.502900004 0.126900002 0.809500009
T2  Si  0.997099996 0.876900002 0.059500009
T2  Si  0.002900004 0.123099998 0.940499991
T2  Si  0.752900004 0.373099998 0.559500009
T2  Si  0.247099996 0.626900002 0.440499991
T2  Si  0.252900004 0.376900002 0.690499991
T2  Si  0.747099996 0.623099998 0.309500009
T3  Si  0.264699996 0.203500003 0.328200012
T3  Si  0.735300004 0.796499997 0.671799988
T3  Si  0.485300004 0.046499997 0.828200012
T3  Si  0.514699996 0.953500003 0.171799988
T3  Si  0.985300004 0.703500003 0.421799988
T3  Si  0.014699996 0.296499997 0.578200012
T3  Si  0.764699996 0.546499997 0.921799988
T3  Si  0.235300004 0.453500003 0.078200012
T3  Si  0.328200012 0.264699996 0.203500003
T3  Si  0.671799988 0.735300004 0.796499997
T3  Si  0.828200012 0.485300004 0.046499997
T3  Si  0.171799988 0.514699996 0.953500003
T3  Si  0.421799988 0.985300004 0.703500003
T3  Si  0.578200012 0.014699996 0.296499997
T3  Si  0.921799988 0.764699996 0.546499997
T3  Si  0.078200012 0.235300004 0.453500003
T3  Si  0.203500003 0.328200012 0.264699996
T3  Si  0.796499997 0.671799988 0.735300004
T3  Si  0.046499997 0.828200012 0.485300004
T3  Si  0.953500003 0.171799988 0.514699996
T3  Si  0.703500003 0.421799988 0.985300004
T3  Si  0.296499997 0.578200012 0.014699996
T3  Si  0.546499997 0.921799988 0.764699996
T3  Si  0.453500003 0.078200012 0.235300004
T3  Si  0.953500003 0.514699996 0.171799988
T3  Si  0.046499997 0.485300004 0.828200012
T3  Si  0.796499997 0.735300004 0.671799988
T3  Si  0.203500003 0.264699996 0.328200012
T3  Si  0.453500003 0.235300004 0.078200012
T3  Si  0.546499997 0.764699996 0.921799988
T3  Si  0.296499997 0.014699996 0.578200012
T3  Si  0.703500003 0.985300004 0.421799988
T3  Si  0.014699996 0.578200012 0.296499997
T3  Si  0.985300004 0.421799988 0.703500003
T3  Si  0.235300004 0.078200012 0.453500003
T3  Si  0.764699996 0.921799988 0.546499997
T3  Si  0.735300004 0.671799988 0.796499997
T3  Si  0.264699996 0.328200012 0.203500003
T3  Si  0.514699996 0.171799988 0.953500003
T3  Si  0.485300004 0.828200012 0.046499997
T3  Si  0.078200012 0.453500003 0.235300004
T3  Si  0.921799988 0.546499997 0.764699996
T3  Si  0.578200012 0.296499997 0.014699996
T3  Si  0.421799988 0.703500003 0.985300004
T3  Si  0.171799988 0.953500003 0.514699996
T3  Si  0.828200012 0.046499997 0.485300004
T3  Si  0.671799988 0.796499997 0.735300004
T3  Si  0.328200012 0.203500003 0.264699996
T3  Si  0.264699996 0.703500003 0.828200012
T3  Si  0.735300004 0.296499997 0.171799988
T3  Si  0.485300004 0.546499997 0.328200012
T3  Si  0.514699996 0.453500003 0.671799988
T3  Si  0.985300004 0.203500003 0.921799988
T3  Si  0.014699996 0.796499997 0.078200012
T3  Si  0.764699996 0.046499997 0.421799988
T3  Si  0.235300004 0.953500003 0.578200012
T3  Si  0.328200012 0.764699996 0.703500003
T3  Si  0.671799988 0.235300004 0.296499997
T3  Si  0.828200012 0.985300004 0.546499997
T3  Si  0.171799988 0.014699996 0.453500003
T3  Si  0.421799988 0.485300004 0.203500003
T3  Si  0.578200012 0.514699996 0.796499997
T3  Si  0.921799988 0.264699996 0.046499997
T3  Si  0.078200012 0.735300004 0.953500003
T3  Si  0.203500003 0.828200012 0.764699996
T3  Si  0.796499997 0.171799988 0.235300004
T3  Si  0.046499997 0.328200012 0.985300004
T3  Si  0.953500003 0.671799988 0.014699996
T3  Si  0.703500003 0.921799988 0.485300004
T3  Si  0.296499997 0.078200012 0.514699996
T3  Si  0.546499997 0.421799988 0.264699996
T3  Si  0.453500003 0.578200012 0.735300004
T3  Si  0.953500003 0.014699996 0.671799988
T3  Si  0.046499997 0.985300004 0.328200012
T3  Si  0.796499997 0.235300004 0.171799988
T3  Si  0.203500003 0.764699996 0.828200012
T3  Si  0.453500003 0.735300004 0.578200012
T3  Si  0.546499997 0.264699996 0.421799988
T3  Si  0.296499997 0.514699996 0.078200012
T3  Si  0.703500003 0.485300004 0.921799988
T3  Si  0.014699996 0.078200012 0.796499997
T3  Si  0.985300004 0.921799988 0.203500003
T3  Si  0.235300004 0.578200012 0.953500003
T3  Si  0.764699996 0.421799988 0.046499997
T3  Si  0.735300004 0.171799988 0.296499997
T3  Si  0.264699996 0.828200012 0.703500003
T3  Si  0.514699996 0.671799988 0.453500003
T3  Si  0.485300004 0.328200012 0.546499997
T3  Si  0.078200012 0.953500003 0.735300004
T3  Si  0.921799988 0.046499997 0.264699996
T3  Si  0.578200012 0.796499997 0.514699996
T3  Si  0.421799988 0.203500003 0.485300004
T3  Si  0.171799988 0.453500003 0.014699996
T3  Si  0.828200012 0.546499997 0.985300004
T3  Si  0.671799988 0.296499997 0.235300004
T3  Si  0.328200012 0.703500003 0.764699996
T3  Si  0.764699996 0.203500003 0.828200012
T3  Si  0.235300004 0.796499997 0.171799988
T3  Si  0.985300004 0.046499997 0.328200012
T3  Si  0.014699996 0.953500003 0.671799988
T3  Si  0.485300004 0.703500003 0.921799988
T3  Si  0.514699996 0.296499997 0.078200012
T3  Si  0.264699996 0.546499997 0.421799988
T3  Si  0.735300004 0.453500003 0.578200012
T3  Si  0.828200012 0.264699996 0.703500003
T3  Si  0.171799988 0.735300004 0.296499997
T3  Si  0.328200012 0.485300004 0.546499997
T3  Si  0.671799988 0.514699996 0.453500003
T3  Si  0.921799988 0.985300004 0.203500003
T3  Si  0.078200012 0.014699996 0.796499997
T3  Si  0.421799988 0.764699996 0.046499997
T3  Si  0.578200012 0.235300004 0.953500003
T3  Si  0.703500003 0.328200012 0.764699996
T3  Si  0.296499997 0.671799988 0.235300004
T3  Si  0.546499997 0.828200012 0.985300004
T3  Si  0.453500003 0.171799988 0.014699996
T3  Si  0.203500003 0.421799988 0.485300004
T3  Si  0.796499997 0.578200012 0.514699996
T3  Si  0.046499997 0.921799988 0.264699996
T3  Si  0.953500003 0.078200012 0.735300004
T3  Si  0.453500003 0.514699996 0.671799988
T3  Si  0.546499997 0.485300004 0.328200012
T3  Si  0.296499997 0.735300004 0.171799988
T3  Si  0.703500003 0.264699996 0.828200012
T3  Si  0.953500003 0.235300004 0.578200012
T3  Si  0.046499997 0.764699996 0.421799988
T3  Si  0.796499997 0.014699996 0.078200012
T3  Si  0.203500003 0.985300004 0.921799988
T3  Si  0.514699996 0.578200012 0.796499997
T3  Si  0.485300004 0.421799988 0.203500003
T3  Si  0.735300004 0.078200012 0.953500003
T3  Si  0.264699996 0.921799988 0.046499997
T3  Si  0.235300004 0.671799988 0.296499997
T3  Si  0.764699996 0.328200012 0.703500003
T3  Si  0.014699996 0.171799988 0.453500003
T3  Si  0.985300004 0.828200012 0.546499997
T3  Si  0.578200012 0.453500003 0.735300004
T3  Si  0.421799988 0.546499997 0.264699996
T3  Si  0.078200012 0.296499997 0.514699996
T3  Si  0.921799988 0.703500003 0.485300004
T3  Si  0.671799988 0.953500003 0.014699996
T3  Si  0.328200012 0.046499997 0.985300004
T3  Si  0.171799988 0.796499997 0.235300004
T3  Si  0.828200012 0.203500003 0.764699996
T3  Si  0.764699996 0.703500003 0.328200012
T3  Si  0.235300004 0.296499997 0.671799988
T3  Si  0.985300004 0.546499997 0.828200012
T3  Si  0.014699996 0.453500003 0.171799988
T3  Si  0.485300004 0.203500003 0.421799988
T3  Si  0.514699996 0.796499997 0.578200012
T3  Si  0.264699996 0.046499997 0.921799988
T3  Si  0.735300004 0.953500003 0.078200012
T3  Si  0.828200012 0.764699996 0.203500003
T3  Si  0.171799988 0.235300004 0.796499997
T3  Si  0.328200012 0.985300004 0.046499997
T3  Si  0.671799988 0.014699996 0.953500003
T3  Si  0.921799988 0.485300004 0.703500003
T3  Si  0.078200012 0.514699996 0.296499997
T3  Si  0.421799988 0.264699996 0.546499997
T3  Si  0.578200012 0.735300004 0.453500003
T3  Si  0.703500003 0.828200012 0.264699996
T3  Si  0.296499997 0.171799988 0.735300004
T3  Si  0.546499997 0.328200012 0.485300004
T3  Si  0.453500003 0.671799988 0.514699996
T3  Si  0.203500003 0.921799988 0.985300004
T3  Si  0.796499997 0.078200012 0.014699996
T3  Si  0.046499997 0.421799988 0.764699996
T3  Si  0.953500003 0.578200012 0.235300004
T3  Si  0.453500003 0.014699996 0.171799988
T3  Si  0.546499997 0.985300004 0.828200012
T3  Si  0.296499997 0.235300004 0.671799988
T3  Si  0.703500003 0.764699996 0.328200012
T3  Si  0.953500003 0.735300004 0.078200012
T3  Si  0.046499997 0.264699996 0.921799988
T3  Si  0.796499997 0.514699996 0.578200012
T3  Si  0.203500003 0.485300004 0.421799988
T3  Si  0.514699996 0.078200012 0.296499997
T3  Si  0.485300004 0.921799988 0.703500003
T3  Si  0.735300004 0.578200012 0.453500003
T3  Si  0.264699996 0.421799988 0.546499997
T3  Si  0.235300004 0.171799988 0.796499997
T3  Si  0.764699996 0.828200012 0.203500003
T3  Si  0.014699996 0.671799988 0.953500003
T3  Si  0.985300004 0.328200012 0.046499997
T3  Si  0.578200012 0.953500003 0.235300004
T3  Si  0.421799988 0.046499997 0.764699996
T3  Si  0.078200012 0.796499997 0.014699996
T3  Si  0.921799988 0.203500003 0.985300004
T3  Si  0.671799988 0.453500003 0.514699996
T3  Si  0.328200012 0.546499997 0.485300004
T3  Si  0.171799988 0.296499997 0.735300004
T3  Si  0.828200012 0.703500003 0.264699996
T4  Si  0.414600015 0.214399993 0.274599999
T4  Si  0.585399985 0.785600007 0.725400001
T4  Si  0.335399985 0.035600007 0.774599999
T4  Si  0.664600015 0.964399993 0.225400001
T4  Si  0.835399985 0.714399993 0.475400001
T4  Si  0.164600015 0.285600007 0.524599999
T4  Si  0.914600015 0.535600007 0.975400001
T4  Si  0.085399985 0.464399993 0.024599999
T4  Si  0.274599999 0.414600015 0.214399993
T4  Si  0.725400001 0.585399985 0.785600007
T4  Si  0.774599999 0.335399985 0.035600007
T4  Si  0.225400001 0.664600015 0.964399993
T4  Si  0.475400001 0.835399985 0.714399993
T4  Si  0.524599999 0.164600015 0.285600007
T4  Si  0.975400001 0.914600015 0.535600007
T4  Si  0.024599999 0.085399985 0.464399993
T4  Si  0.214399993 0.274599999 0.414600015
T4  Si  0.785600007 0.725400001 0.585399985
T4  Si  0.035600007 0.774599999 0.335399985
T4  Si  0.964399993 0.225400001 0.664600015
T4  Si  0.714399993 0.475400001 0.835399985
T4  Si  0.285600007 0.524599999 0.164600015
T4  Si  0.535600007 0.975400001 0.914600015
T4  Si  0.464399993 0.024599999 0.085399985
T4  Si  0.964399993 0.664600015 0.225400001
T4  Si  0.035600007 0.335399985 0.774599999
T4  Si  0.785600007 0.585399985 0.725400001
T4  Si  0.214399993 0.414600015 0.274599999
T4  Si  0.464399993 0.085399985 0.024599999
T4  Si  0.535600007 0.914600015 0.975400001
T4  Si  0.285600007 0.164600015 0.524599999
T4  Si  0.714399993 0.835399985 0.475400001
T4  Si  0.164600015 0.524599999 0.285600007
T4  Si  0.835399985 0.475400001 0.714399993
T4  Si  0.085399985 0.024599999 0.464399993
T4  Si  0.914600015 0.975400001 0.535600007
T4  Si  0.585399985 0.725400001 0.785600007
T4  Si  0.414600015 0.274599999 0.214399993
T4  Si  0.664600015 0.225400001 0.964399993
T4  Si  0.335399985 0.774599999 0.035600007
T4  Si  0.024599999 0.464399993 0.085399985
T4  Si  0.975400001 0.535600007 0.914600015
T4  Si  0.524599999 0.285600007 0.164600015
T4  Si  0.475400001 0.714399993 0.835399985
T4  Si  0.225400001 0.964399993 0.664600015
T4  Si  0.774599999 0.035600007 0.335399985
T4  Si  0.725400001 0.785600007 0.585399985
T4  Si  0.274599999 0.214399993 0.414600015
T4  Si  0.414600015 0.714399993 0.774599999
T4  Si  0.585399985 0.285600007 0.225400001
T4  Si  0.335399985 0.535600007 0.274599999
T4  Si  0.664600015 0.464399993 0.725400001
T4  Si  0.835399985 0.214399993 0.975400001
T4  Si  0.164600015 0.785600007 0.024599999
T4  Si  0.914600015 0.035600007 0.475400001
T4  Si  0.085399985 0.964399993 0.524599999
T4  Si  0.274599999 0.914600015 0.714399993
T4  Si  0.725400001 0.085399985 0.285600007
T4  Si  0.774599999 0.835399985 0.535600007
T4  Si  0.225400001 0.164600015 0.464399993
T4  Si  0.475400001 0.335399985 0.214399993
T4  Si  0.524599999 0.664600015 0.785600007
T4  Si  0.975400001 0.414600015 0.035600007
T4  Si  0.024599999 0.585399985 0.964399993
T4  Si  0.214399993 0.774599999 0.914600015
T4  Si  0.785600007 0.225400001 0.085399985
T4  Si  0.035600007 0.274599999 0.835399985
T4  Si  0.964399993 0.725400001 0.164600015
T4  Si  0.714399993 0.975400001 0.335399985
T4  Si  0.285600007 0.024599999 0.664600015
T4  Si  0.535600007 0.475400001 0.414600015
T4  Si  0.464399993 0.524599999 0.585399985
T4  Si  0.964399993 0.164600015 0.725400001
T4  Si  0.035600007 0.835399985 0.274599999
T4  Si  0.785600007 0.085399985 0.225400001
T4  Si  0.214399993 0.914600015 0.774599999
T4  Si  0.464399993 0.585399985 0.524599999
T4  Si  0.535600007 0.414600015 0.475400001
T4  Si  0.285600007 0.664600015 0.024599999
T4  Si  0.714399993 0.335399985 0.975400001
T4  Si  0.164600015 0.024599999 0.785600007
T4  Si  0.835399985 0.975400001 0.214399993
T4  Si  0.085399985 0.524599999 0.964399993
T4  Si  0.914600015 0.475400001 0.035600007
T4  Si  0.585399985 0.225400001 0.285600007
T4  Si  0.414600015 0.774599999 0.714399993
T4  Si  0.664600015 0.725400001 0.464399993
T4  Si  0.335399985 0.274599999 0.535600007
T4  Si  0.024599999 0.964399993 0.585399985
T4  Si  0.975400001 0.035600007 0.414600015
T4  Si  0.524599999 0.785600007 0.664600015
T4  Si  0.475400001 0.214399993 0.335399985
T4  Si  0.225400001 0.464399993 0.164600015
T4  Si  0.774599999 0.535600007 0.835399985
T4  Si  0.725400001 0.285600007 0.085399985
T4  Si  0.274599999 0.714399993 0.914600015
T4  Si  0.914600015 0.214399993 0.774599999
T4  Si  0.085399985 0.785600007 0.225400001
T4  Si  0.835399985 0.035600007 0.274599999
T4  Si  0.164600015 0.964399993 0.725400001
T4  Si  0.335399985 0.714399993 0.975400001
T4  Si  0.664600015 0.285600007 0.024599999
T4  Si  0.414600015 0.535600007 0.475400001
T4  Si  0.585399985 0.464399993 0.524599999
T4  Si  0.774599999 0.414600015 0.714399993
T4  Si  0.225400001 0.585399985 0.285600007
T4  Si  0.274599999 0.335399985 0.535600007
T4  Si  0.725400001 0.664600015 0.464399993
T4  Si  0.975400001 0.835399985 0.214399993
T4  Si  0.024599999 0.164600015 0.785600007
T4  Si  0.475400001 0.914600015 0.035600007
T4  Si  0.524599999 0.085399985 0.964399993
T4  Si  0.714399993 0.274599999 0.914600015
T4  Si  0.285600007 0.725400001 0.085399985
T4  Si  0.535600007 0.774599999 0.835399985
T4  Si  0.464399993 0.225400001 0.164600015
T4  Si  0.214399993 0.475400001 0.335399985
T4  Si  0.785600007 0.524599999 0.664600015
T4  Si  0.035600007 0.975400001 0.414600015
T4  Si  0.964399993 0.024599999 0.585399985
T4  Si  0.464399993 0.664600015 0.725400001
T4  Si  0.535600007 0.335399985 0.274599999
T4  Si  0.285600007 0.585399985 0.225400001
T4  Si  0.714399993 0.414600015 0.774599999
T4  Si  0.964399993 0.085399985 0.524599999
T4  Si  0.035600007 0.914600015 0.475400001
T4  Si  0.785600007 0.164600015 0.024599999
T4  Si  0.214399993 0.835399985 0.975400001
T4  Si  0.664600015 0.524599999 0.785600007
T4  Si  0.335399985 0.475400001 0.214399993
T4  Si  0.585399985 0.024599999 0.964399993
T4  Si  0.414600015 0.975400001 0.035600007
T4  Si  0.085399985 0.725400001 0.285600007
T4  Si  0.914600015 0.274599999 0.714399993
T4  Si  0.164600015 0.225400001 0.464399993
T4  Si  0.835399985 0.774599999 0.535600007
T4  Si  0.524599999 0.464399993 0.585399985
T4  Si  0.475400001 0.535600007 0.414600015
T4  Si  0.024599999 0.285600007 0.664600015
T4  Si  0.975400001 0.714399993 0.335399985
T4  Si  0.725400001 0.964399993 0.164600015
T4  Si  0.274599999 0.035600007 0.835399985
T4  Si  0.225400001 0.785600007 0.085399985
T4  Si  0.774599999 0.214399993 0.914600015
T4  Si  0.914600015 0.714399993 0.274599999
T4  Si  0.085399985 0.285600007 0.725400001
T4  Si  0.835399985 0.535600007 0.774599999
T4  Si  0.164600015 0.464399993 0.225400001
T4  Si  0.335399985 0.214399993 0.475400001
T4  Si  0.664600015 0.785600007 0.524599999
T4  Si  0.414600015 0.035600007 0.975400001
T4  Si  0.585399985 0.964399993 0.024599999
T4  Si  0.774599999 0.914600015 0.214399993
T4  Si  0.225400001 0.085399985 0.785600007
T4  Si  0.274599999 0.835399985 0.035600007
T4  Si  0.725400001 0.164600015 0.964399993
T4  Si  0.975400001 0.335399985 0.714399993
T4  Si  0.024599999 0.664600015 0.285600007
T4  Si  0.475400001 0.414600015 0.535600007
T4  Si  0.524599999 0.585399985 0.464399993
T4  Si  0.714399993 0.774599999 0.414600015
T4  Si  0.285600007 0.225400001 0.585399985
T4  Si  0.535600007 0.274599999 0.335399985
T4  Si  0.464399993 0.725400001 0.664600015
T4  Si  0.214399993 0.975400001 0.835399985
T4  Si  0.785600007 0.024599999 0.164600015
T4  Si  0.035600007 0.475400001 0.914600015
T4  Si  0.964399993 0.524599999 0.085399985
T4  Si  0.464399993 0.164600015 0.225400001
T4  Si  0.535600007 0.835399985 0.774599999
T4  Si  0.285600007 0.085399985 0.725400001
T4  Si  0.714399993 0.914600015 0.274599999
T4  Si  0.964399993 0.585399985 0.024599999
T4  Si  0.035600007 0.414600015 0.975400001
T4  Si  0.785600007 0.664600015 0.524599999
T4  Si  0.214399993 0.335399985 0.475400001
T4  Si  0.664600015 0.024599999 0.285600007
T4  Si  0.335399985 0.975400001 0.714399993
T4  Si  0.585399985 0.524599999 0.464399993
T4  Si  0.414600015 0.475400001 0.535600007
T4  Si  0.085399985 0.225400001 0.785600007
T4  Si  0.914600015 0.774599999 0.214399993
T4  Si  0.164600015 0.725400001 0.964399993
T4  Si  0.835399985 0.274599999 0.035600007
T4  Si  0.524599999 0.964399993 0.085399985
T4  Si  0.475400001 0.035600007 0.914600015
T4  Si  0.024599999 0.785600007 0.164600015
T4  Si  0.975400001 0.214399993 0.835399985
T4  Si  0.725400001 0.464399993 0.664600015
T4  Si  0.274599999 0.535600007 0.335399985
T4  Si  0.225400001 0.285600007 0.585399985
T4  Si  0.774599999 0.714399993 0.414600015